<?xml version="1.0" encoding="UTF-8"?>

<!-- generated on 2024-02-21 17:55:54 by Eclipse SUMO netconvert Version 1.19.0
<configuration xmlns:xsi="http://www.w3.org/2001/XMLSchema-instance" xsi:noNamespaceSchemaLocation="http://sumo.dlr.de/xsd/netconvertConfiguration.xsd">

    <input>
        <osm-files value="check.osm"/>
    </input>

    <output>
        <output-file value="treck.net.xml"/>
    </output>

    <projection>
        <proj.utm value="true"/>
    </projection>

    <junctions>
        <junctions.join-dist value="10"/>
    </junctions>

</configuration>
-->

<net version="1.16" junctionCornerDetail="5" limitTurnSpeed="5.50" xmlns:xsi="http://www.w3.org/2001/XMLSchema-instance" xsi:noNamespaceSchemaLocation="http://sumo.dlr.de/xsd/net_file.xsd">

    <location netOffset="-520542.92,-5397817.10" convBoundary="0.00,0.00,2377.77,1067.09" origBoundary="9.265902,48.697485,9.313985,48.751136" projParameter="+proj=utm +zone=32 +ellps=WGS84 +datum=WGS84 +units=m +no_defs"/>

    <type id="highway.cycleway" priority="1" numLanes="1" speed="5.56" allow="bicycle" oneway="0" width="2.00"/>
    <type id="highway.footway" priority="1" numLanes="1" speed="2.78" allow="pedestrian" oneway="1" width="2.00"/>
    <type id="highway.living_street" priority="2" numLanes="1" speed="2.78" disallow="tram rail_urban rail rail_electric rail_fast ship" oneway="0"/>
    <type id="highway.path" priority="1" numLanes="1" speed="5.56" allow="pedestrian bicycle" oneway="0" width="2.00"/>
    <type id="highway.pedestrian" priority="1" numLanes="1" speed="2.78" allow="pedestrian" oneway="1" width="2.00"/>
    <type id="highway.residential" priority="3" numLanes="1" speed="13.89" disallow="tram rail_urban rail rail_electric rail_fast ship" oneway="0"/>
    <type id="highway.secondary" priority="11" numLanes="1" speed="27.78" disallow="tram rail_urban rail rail_electric rail_fast ship" oneway="0"/>
    <type id="highway.secondary_link" priority="6" numLanes="1" speed="22.22" disallow="tram rail_urban rail rail_electric rail_fast ship" oneway="0"/>
    <type id="highway.service" priority="1" numLanes="1" speed="5.56" allow="pedestrian delivery bicycle" oneway="0"/>
    <type id="highway.steps" priority="1" numLanes="1" speed="1.39" allow="pedestrian" oneway="1" width="2.00"/>
    <type id="highway.tertiary" priority="10" numLanes="1" speed="22.22" disallow="tram rail_urban rail rail_electric rail_fast ship" oneway="0"/>
    <type id="highway.trunk" priority="13" numLanes="2" speed="27.78" disallow="pedestrian bicycle tram rail_urban rail rail_electric rail_fast ship" oneway="0"/>
    <type id="highway.trunk_link" priority="8" numLanes="1" speed="22.22" disallow="pedestrian bicycle tram rail_urban rail rail_electric rail_fast ship" oneway="0"/>
    <type id="highway.unclassified" priority="4" numLanes="1" speed="13.89" disallow="tram rail_urban rail rail_electric rail_fast ship" oneway="0"/>
    <type id="railway.rail" priority="20" numLanes="1" speed="44.44" allow="rail" oneway="1"/>

    <edge id=":1026115494_0" function="internal">
        <lane id=":1026115494_0_0" index="0" allow="pedestrian delivery bicycle" speed="5.03" length="5.01" shape="873.82,424.08 873.43,422.76 872.71,421.89 871.66,421.46 870.29,421.48"/>
    </edge>
    <edge id=":1026115494_1" function="internal">
        <lane id=":1026115494_1_0" index="0" allow="pedestrian delivery bicycle" speed="5.56" length="9.69" shape="873.82,424.08 872.64,414.47"/>
    </edge>
    <edge id=":1026115494_2" function="internal">
        <lane id=":1026115494_2_0" index="0" allow="pedestrian delivery bicycle" speed="5.56" length="10.34" shape="873.82,424.08 873.82,421.29 874.73,419.14 876.56,417.66 879.30,416.84"/>
    </edge>
    <edge id=":1026115494_3" function="internal">
        <lane id=":1026115494_3_0" index="0" allow="pedestrian delivery bicycle" speed="3.65" length="4.67" shape="873.82,424.08 874.43,422.78 875.17,422.27 876.02,422.55 876.98,423.62"/>
    </edge>
    <edge id=":1026115494_4" function="internal">
        <lane id=":1026115494_4_0" index="0" allow="pedestrian delivery bicycle" speed="5.15" length="5.22" shape="879.79,420.00 878.39,420.42 877.46,421.16 876.99,422.23 876.98,423.62"/>
    </edge>
    <edge id=":1026115494_5" function="internal">
        <lane id=":1026115494_5_0" index="0" allow="pedestrian delivery bicycle" speed="5.56" length="9.61" shape="879.79,420.00 870.29,421.48"/>
    </edge>
    <edge id=":1026115494_6" function="internal">
        <lane id=":1026115494_6_0" index="0" allow="pedestrian delivery bicycle" speed="5.56" length="10.43" shape="879.79,420.00 876.91,420.03 874.75,419.12 873.33,417.27 872.64,414.47"/>
    </edge>
    <edge id=":1026115494_7" function="internal">
        <lane id=":1026115494_7_0" index="0" allow="pedestrian delivery bicycle" speed="3.65" length="4.67" shape="879.79,420.00 878.48,419.39 877.96,418.66 878.23,417.81 879.30,416.84"/>
    </edge>
    <edge id=":1026115494_8" function="internal">
        <lane id=":1026115494_8_0" index="0" allow="pedestrian delivery bicycle" speed="4.98" length="5.07" shape="875.83,414.15 876.16,415.51 876.85,416.41 877.90,416.85 879.30,416.84"/>
    </edge>
    <edge id=":1026115494_9" function="internal">
        <lane id=":1026115494_9_0" index="0" allow="pedestrian delivery bicycle" speed="5.56" length="9.54" shape="875.83,414.15 876.98,423.62"/>
    </edge>
    <edge id=":1026115494_10" function="internal">
        <lane id=":1026115494_10_0" index="0" allow="pedestrian delivery bicycle" speed="5.56" length="10.35" shape="875.83,414.15 875.72,417.00 874.76,419.16 872.95,420.66 870.29,421.48"/>
    </edge>
    <edge id=":1026115494_11" function="internal">
        <lane id=":1026115494_11_0" index="0" allow="pedestrian delivery bicycle" speed="3.65" length="4.67" shape="875.83,414.15 875.15,415.43 874.39,415.90 873.56,415.58 872.64,414.47"/>
    </edge>
    <edge id=":1026115494_12" function="internal">
        <lane id=":1026115494_12_0" index="0" allow="pedestrian delivery bicycle" speed="5.30" length="5.40" shape="869.79,418.32 871.16,417.89 872.10,417.11 872.59,415.97 872.64,414.47"/>
    </edge>
    <edge id=":1026115494_13" function="internal">
        <lane id=":1026115494_13_0" index="0" allow="pedestrian delivery bicycle" speed="5.56" length="9.62" shape="869.79,418.32 879.30,416.84"/>
    </edge>
    <edge id=":1026115494_14" function="internal">
        <lane id=":1026115494_14_0" index="0" allow="pedestrian delivery bicycle" speed="5.56" length="10.22" shape="869.79,418.32 872.59,418.28 874.73,419.15 876.19,420.93 876.98,423.62"/>
    </edge>
    <edge id=":1026115494_15" function="internal">
        <lane id=":1026115494_15_0" index="0" allow="pedestrian delivery bicycle" speed="3.65" length="4.67" shape="869.79,418.32 871.10,418.93 871.62,419.65 871.35,420.51 870.29,421.48"/>
    </edge>
    <edge id=":1026115525_0" function="internal">
        <lane id=":1026115525_0_0" index="0" allow="pedestrian delivery bicycle" speed="3.65" length="4.67" shape="909.25,412.18 910.56,412.79 911.08,413.52 910.80,414.37 909.74,415.35"/>
    </edge>
    <edge id=":1026115527_0" function="internal">
        <lane id=":1026115527_0_0" index="0" allow="pedestrian delivery bicycle" speed="3.65" length="4.67" shape="821.35,429.17 820.04,428.56 819.52,427.84 819.79,426.98 820.85,426.01"/>
    </edge>
    <edge id=":1026125412_0" function="internal">
        <lane id=":1026125412_0_0" index="0" allow="pedestrian delivery bicycle" speed="3.65" length="4.67" shape="871.86,407.87 872.49,406.57 873.22,406.06 874.07,406.35 875.03,407.43"/>
    </edge>
    <edge id=":10269696183_0" function="internal">
        <lane id=":10269696183_0_0" index="0" allow="bicycle" speed="5.56" length="20.76" width="2.00" shape="1526.92,766.90 1524.29,772.74 1521.07,775.08 1517.27,773.91 1512.89,769.23"/>
    </edge>
    <edge id=":10269696189_0" function="internal">
        <lane id=":10269696189_0_0" index="0" disallow="tram rail_urban rail rail_electric rail_fast ship" speed="8.33" length="4.28" shape="1675.96,972.44 1674.17,968.55"/>
        <lane id=":10269696189_0_1" index="1" disallow="tram rail_urban rail rail_electric rail_fast ship" speed="8.33" length="4.28" shape="1678.86,971.11 1677.08,967.22"/>
    </edge>
    <edge id=":10269696189_2" function="internal">
        <lane id=":10269696189_2_0" index="0" disallow="tram rail_urban rail rail_electric rail_fast ship" speed="8.33" length="4.29" shape="1682.89,964.54 1684.68,968.44"/>
        <lane id=":10269696189_2_1" index="1" disallow="tram rail_urban rail rail_electric rail_fast ship" speed="8.33" length="4.29" shape="1679.98,965.88 1681.77,969.78"/>
    </edge>
    <edge id=":10811105455_0" function="internal">
        <lane id=":10811105455_0_0" index="0" allow="pedestrian delivery bicycle" speed="5.56" length="0.22" shape="1593.78,869.06 1593.90,869.25"/>
    </edge>
    <edge id=":11183042372_0" function="internal">
        <lane id=":11183042372_0_0" index="0" allow="pedestrian bicycle" speed="5.56" length="2.79" width="2.00" shape="1996.48,527.37 1995.96,526.77 1995.42,526.52 1994.87,526.27 1994.33,525.68"/>
    </edge>
    <edge id=":11183042372_1" function="internal">
        <lane id=":11183042372_1_0" index="0" allow="pedestrian bicycle" speed="2.89" length="2.92" width="2.00" shape="1996.04,524.65 1996.00,525.55 1995.70,526.02 1995.15,526.07 1994.33,525.68"/>
    </edge>
    <edge id=":11547007178_0" function="internal">
        <lane id=":11547007178_0_0" index="0" allow="pedestrian bus delivery bicycle" speed="13.89" length="0.25" shape="2143.31,502.38 2143.26,502.32 2143.23,502.28 2143.19,502.25 2143.13,502.20"/>
    </edge>
    <edge id=":11547007180_0" function="internal">
        <lane id=":11547007180_0_0" index="0" disallow="tram rail_urban rail rail_electric rail_fast ship" speed="13.89" length="4.33" shape="2147.02,486.19 2148.17,490.26"/>
        <lane id=":11547007180_0_1" index="1" disallow="tram rail_urban rail rail_electric rail_fast ship" speed="13.89" length="4.33" shape="2150.07,485.23 2151.25,489.40"/>
        <lane id=":11547007180_0_2" index="2" disallow="tram rail_urban rail rail_electric rail_fast ship" speed="13.89" length="4.33" shape="2153.12,484.26 2154.34,488.54"/>
    </edge>
    <edge id=":11547007184_0" function="internal">
        <lane id=":11547007184_0_0" index="0" disallow="tram rail_urban rail rail_electric rail_fast ship" speed="5.56" length="0.29" shape="2100.88,510.41 2100.83,510.70"/>
    </edge>
    <edge id=":11547007184_1" function="internal">
        <lane id=":11547007184_1_0" index="0" disallow="tram rail_urban rail rail_electric rail_fast ship" speed="5.56" length="0.31" shape="2097.69,510.08 2097.75,509.78"/>
    </edge>
    <edge id=":11547007186_0" function="internal">
        <lane id=":11547007186_0_0" index="0" allow="pedestrian bus delivery bicycle" speed="11.11" length="12.60" shape="2126.45,492.10 2123.15,491.26 2120.26,490.69 2117.36,490.57 2114.05,491.07"/>
    </edge>
    <edge id=":11547007186_1" function="internal">
        <lane id=":11547007186_1_0" index="0" allow="pedestrian bus delivery bicycle" speed="6.74" length="18.05" shape="2126.45,492.10 2120.96,490.22 2119.46,488.36 2121.95,486.51 2128.44,484.69"/>
    </edge>
    <edge id=":11547007186_2" function="internal">
        <lane id=":11547007186_2_0" index="0" disallow="tram rail_urban rail rail_electric rail_fast ship" speed="8.33" length="15.41" shape="2129.11,487.82 2114.05,491.07"/>
    </edge>
    <edge id=":11547007186_3" function="internal">
        <lane id=":11547007186_3_0" index="0" disallow="tram rail_urban rail rail_electric rail_fast ship" speed="3.65" length="1.44" shape="2129.11,487.82 2127.77,487.29"/>
    </edge>
    <edge id=":11547007186_7" function="internal">
        <lane id=":11547007186_7_0" index="0" disallow="tram rail_urban rail rail_electric rail_fast ship" speed="3.65" length="3.23" shape="2127.77,487.29 2127.21,486.59 2127.44,485.72 2128.44,484.69"/>
    </edge>
    <edge id=":11547007186_4" function="internal">
        <lane id=":11547007186_4_0" index="0" disallow="tram rail_urban rail rail_electric rail_fast ship" speed="8.33" length="15.52" shape="2112.56,484.85 2127.77,481.56"/>
        <lane id=":11547007186_4_1" index="1" disallow="tram rail_urban rail rail_electric rail_fast ship" speed="8.33" length="15.52" shape="2113.31,487.96 2128.44,484.69"/>
    </edge>
    <edge id=":11547007186_6" function="internal">
        <lane id=":11547007186_6_0" index="0" disallow="tram rail_urban rail rail_electric rail_fast ship" speed="3.65" length="1.44" shape="2113.31,487.96 2114.66,488.46"/>
    </edge>
    <edge id=":11547007186_8" function="internal">
        <lane id=":11547007186_8_0" index="0" disallow="tram rail_urban rail rail_electric rail_fast ship" speed="3.65" length="3.23" shape="2114.66,488.46 2115.24,489.14 2115.03,490.02 2114.05,491.07"/>
    </edge>
    <edge id=":11547007187_0" function="internal">
        <lane id=":11547007187_0_0" index="0" allow="pedestrian bus delivery bicycle" speed="13.89" length="4.23" shape="2130.38,494.09 2129.28,493.47 2128.57,492.97 2127.82,492.54 2126.65,492.15"/>
    </edge>
    <edge id=":11547007187_1" function="internal">
        <lane id=":11547007187_1_0" index="0" allow="bicycle" speed="9.72" length="4.85" width="2.00" shape="2130.95,490.79 2126.50,492.73"/>
    </edge>
    <edge id=":11547007190_0" function="internal">
        <lane id=":11547007190_0_0" index="0" disallow="tram rail_urban rail rail_electric rail_fast ship" speed="5.56" length="3.56" shape="2102.09,498.89 2104.62,496.39"/>
    </edge>
    <edge id=":11547007190_1" function="internal">
        <lane id=":11547007190_1_0" index="0" disallow="tram rail_urban rail rail_electric rail_fast ship" speed="5.56" length="2.61" shape="2101.76,494.96 2099.79,496.66"/>
    </edge>
    <edge id=":11547007196_0" function="internal">
        <lane id=":11547007196_0_0" index="0" allow="bicycle" speed="5.56" length="0.20" width="2.00" shape="2167.05,484.60 2166.85,484.64"/>
    </edge>
    <edge id=":11547007201_0" function="internal">
        <lane id=":11547007201_0_0" index="0" allow="bicycle" speed="3.94" length="3.40" width="2.00" shape="2166.09,484.79 2164.98,485.13 2164.27,485.59 2163.97,486.19 2164.07,486.91"/>
    </edge>
    <edge id=":11547007201_1" function="internal">
        <lane id=":11547007201_1_0" index="0" allow="bicycle" speed="5.56" length="9.36" width="2.00" shape="2166.09,484.79 2156.91,486.59"/>
    </edge>
    <edge id=":11547007201_2" function="internal">
        <lane id=":11547007201_2_0" index="0" disallow="tram rail_urban rail rail_electric rail_fast ship" speed="13.89" length="0.75" shape="2163.24,486.41 2163.51,487.12"/>
        <lane id=":11547007201_2_1" index="1" disallow="tram rail_urban rail rail_electric rail_fast ship" speed="13.89" length="0.75" shape="2160.26,487.56 2160.52,488.26"/>
    </edge>
    <edge id=":11547007201_4" function="internal">
        <lane id=":11547007201_4_0" index="0" allow="bicycle" speed="3.94" length="3.03" width="2.00" shape="2159.70,487.77 2156.91,486.59"/>
    </edge>
    <edge id=":11547007202_0" function="internal">
        <lane id=":11547007202_0_0" index="0" allow="bicycle" speed="5.07" length="4.69" width="2.00" shape="2147.98,491.34 2147.44,490.10 2146.68,489.29 2145.71,488.90 2144.53,488.94"/>
    </edge>
    <edge id=":11547007202_1" function="internal">
        <lane id=":11547007202_1_0" index="0" disallow="tram rail_urban rail rail_electric rail_fast ship" speed="13.89" length="5.04" shape="2148.56,491.16 2147.08,486.38"/>
        <lane id=":11547007202_1_1" index="1" disallow="tram rail_urban rail rail_electric rail_fast ship" speed="13.89" length="5.04" shape="2151.62,490.23 2150.13,485.42"/>
        <lane id=":11547007202_1_2" index="2" disallow="tram rail_urban rail rail_electric rail_fast ship" speed="13.89" length="5.04" shape="2154.68,489.31 2153.18,484.45"/>
    </edge>
    <edge id=":11547007202_4" function="internal">
        <lane id=":11547007202_4_0" index="0" allow="bicycle" speed="5.56" length="12.40" width="2.00" shape="2156.71,486.63 2144.53,488.94"/>
    </edge>
    <edge id=":11547007202_5" function="internal">
        <lane id=":11547007202_5_0" index="0" allow="bicycle" speed="6.20" length="7.69" width="2.00" shape="2156.71,486.63 2153.84,487.01 2151.70,486.96 2150.27,486.49 2149.56,485.60"/>
        <lane id=":11547007202_5_1" index="1" allow="bicycle" speed="5.12" length="5.06" width="2.00" shape="2156.71,486.63 2155.22,486.73 2154.05,486.43 2153.17,485.73 2152.61,484.64"/>
    </edge>
    <edge id=":11547008732_0" function="internal">
        <lane id=":11547008732_0_0" index="0" disallow="tram rail_urban rail rail_electric rail_fast ship" speed="13.89" length="4.84" shape="2154.25,465.65 2156.16,470.02"/>
        <lane id=":11547008732_0_1" index="1" disallow="tram rail_urban rail rail_electric rail_fast ship" speed="13.89" length="4.84" shape="2151.29,466.87 2153.25,471.37"/>
    </edge>
    <edge id=":11547008734_0" function="internal">
        <lane id=":11547008734_0_0" index="0" disallow="tram rail_urban rail rail_electric rail_fast ship" speed="8.33" length="4.64" shape="2141.42,485.52 2136.83,486.20"/>
    </edge>
    <edge id=":11547008734_1" function="internal">
        <lane id=":11547008734_1_0" index="0" disallow="tram rail_urban rail rail_electric rail_fast ship" speed="8.33" length="4.77" shape="2135.83,479.87 2140.59,479.18"/>
        <lane id=":11547008734_1_1" index="1" disallow="tram rail_urban rail rail_electric rail_fast ship" speed="8.33" length="4.77" shape="2136.33,483.04 2141.01,482.35"/>
    </edge>
    <edge id=":11547008735_0" function="internal">
        <lane id=":11547008735_0_0" index="0" allow="bicycle" speed="5.56" length="5.00" width="2.00" shape="2142.34,489.37 2137.38,490.02"/>
    </edge>
    <edge id=":11547008736_0" function="internal">
        <lane id=":11547008736_0_0" index="0" disallow="tram rail_urban rail rail_electric rail_fast ship" speed="13.89" length="3.94" shape="2144.25,473.70 2142.89,469.96"/>
        <lane id=":11547008736_0_1" index="1" disallow="tram rail_urban rail rail_electric rail_fast ship" speed="13.89" length="3.94" shape="2147.24,472.57 2145.91,468.90"/>
    </edge>
    <edge id=":11547008809_0" function="internal">
        <lane id=":11547008809_0_0" index="0" disallow="tram rail_urban rail rail_electric rail_fast ship" speed="13.89" length="0.10" shape="2136.56,397.64 2136.56,397.64"/>
    </edge>
    <edge id=":11547008813_0" function="internal">
        <lane id=":11547008813_0_0" index="0" disallow="tram rail_urban rail rail_electric rail_fast ship" speed="13.89" length="0.30" shape="2113.81,398.97 2114.08,398.84"/>
    </edge>
    <edge id=":11547008814_0" function="internal">
        <lane id=":11547008814_0_0" index="0" disallow="tram rail_urban rail rail_electric rail_fast ship" speed="13.89" length="0.30" shape="2125.29,413.29 2125.21,413.00"/>
    </edge>
    <edge id=":11547008816_0" function="internal">
        <lane id=":11547008816_0_0" index="0" allow="pedestrian bus delivery bicycle" speed="8.33" length="1.79" shape="1867.95,531.91 1869.65,532.44"/>
    </edge>
    <edge id=":11547008816_1" function="internal">
        <lane id=":11547008816_1_0" index="0" allow="pedestrian bus delivery bicycle" speed="8.33" length="2.11" shape="1870.60,529.38 1868.58,528.75"/>
    </edge>
    <edge id=":11547008817_0" function="internal">
        <lane id=":11547008817_0_0" index="0" disallow="tram rail_urban rail rail_electric rail_fast ship" speed="13.89" length="0.10" shape="1868.94,516.12 1868.87,516.15"/>
    </edge>
    <edge id=":11547008817_1" function="internal">
        <lane id=":11547008817_1_0" index="0" disallow="tram rail_urban rail rail_electric rail_fast ship" speed="13.89" length="0.10" shape="1867.54,513.24 1867.47,513.27"/>
    </edge>
    <edge id=":11547008820_0" function="internal">
        <lane id=":11547008820_0_0" index="0" disallow="tram rail_urban rail rail_electric rail_fast ship" speed="13.89" length="0.10" shape="2065.71,609.46 2065.71,609.46"/>
        <lane id=":11547008820_0_1" index="1" disallow="tram rail_urban rail rail_electric rail_fast ship" speed="13.89" length="0.10" shape="2062.90,610.98 2062.90,610.98"/>
    </edge>
    <edge id=":11547008821_0" function="internal">
        <lane id=":11547008821_0_0" index="0" disallow="tram rail_urban rail rail_electric rail_fast ship" speed="13.89" length="0.10" shape="2086.70,646.24 2086.73,646.29"/>
        <lane id=":11547008821_0_1" index="1" disallow="tram rail_urban rail rail_electric rail_fast ship" speed="13.89" length="0.10" shape="2084.08,648.08 2084.12,648.13"/>
    </edge>
    <edge id=":11547008827_0" function="internal">
        <lane id=":11547008827_0_0" index="0" disallow="tram rail_urban rail rail_electric rail_fast ship" speed="13.89" length="0.27" shape="2080.63,659.21 2080.42,658.93"/>
        <lane id=":11547008827_0_1" index="1" disallow="tram rail_urban rail rail_electric rail_fast ship" speed="13.89" length="0.27" shape="2083.10,657.17 2082.98,657.02"/>
    </edge>
    <edge id=":11547008828_0" function="internal">
        <lane id=":11547008828_0_0" index="0" disallow="tram rail_urban rail rail_electric rail_fast ship" speed="13.89" length="0.23" shape="2081.88,660.72 2081.77,660.59"/>
        <lane id=":11547008828_0_1" index="1" disallow="tram rail_urban rail rail_electric rail_fast ship" speed="13.89" length="0.23" shape="2084.42,658.77 2084.24,658.54"/>
    </edge>
    <edge id=":11547008833_0" function="internal">
        <lane id=":11547008833_0_0" index="0" disallow="tram rail_urban rail rail_electric rail_fast ship" speed="13.89" length="2.98" shape="2125.16,412.82 2124.35,409.95"/>
    </edge>
    <edge id=":11547008834_0" function="internal">
        <lane id=":11547008834_0_0" index="0" disallow="tram rail_urban rail rail_electric rail_fast ship" speed="13.89" length="3.59" shape="2130.99,405.23 2132.19,408.61"/>
    </edge>
    <edge id=":11547353902_0" function="internal">
        <lane id=":11547353902_0_0" index="0" disallow="tram rail_urban rail rail_electric rail_fast ship" speed="8.33" length="0.30" shape="1676.71,974.10 1676.59,973.82"/>
        <lane id=":11547353902_0_1" index="1" disallow="tram rail_urban rail rail_electric rail_fast ship" speed="8.33" length="0.30" shape="1679.62,972.76 1679.50,972.49"/>
    </edge>
    <edge id=":11547353902_2" function="internal">
        <lane id=":11547353902_2_0" index="0" disallow="tram rail_urban rail rail_electric rail_fast ship" speed="8.33" length="0.30" shape="1685.31,969.82 1685.44,970.09"/>
        <lane id=":11547353902_2_1" index="1" disallow="tram rail_urban rail rail_electric rail_fast ship" speed="8.33" length="0.30" shape="1682.40,971.15 1682.53,971.42"/>
    </edge>
    <edge id=":11547353903_0" function="internal">
        <lane id=":11547353903_0_0" index="0" disallow="tram rail_urban rail rail_electric rail_fast ship" speed="8.33" length="0.30" shape="1695.29,957.47 1694.99,957.54"/>
    </edge>
    <edge id=":11547353903_1" function="internal">
        <lane id=":11547353903_1_0" index="0" disallow="tram rail_urban rail rail_electric rail_fast ship" speed="8.33" length="0.30" shape="1694.26,954.42 1694.55,954.36"/>
    </edge>
    <edge id=":11547353904_0" function="internal">
        <lane id=":11547353904_0_0" index="0" disallow="tram rail_urban rail rail_electric rail_fast ship" speed="8.33" length="0.10" shape="1667.97,947.59 1667.97,947.59"/>
    </edge>
    <edge id=":11547353904_1" function="internal">
        <lane id=":11547353904_1_0" index="0" allow="bus bicycle" speed="8.33" length="0.10" shape="1670.87,946.23 1670.87,946.23"/>
    </edge>
    <edge id=":11547353905_0" function="internal">
        <lane id=":11547353905_0_0" index="0" disallow="tram rail_urban rail rail_electric rail_fast ship" speed="8.33" length="0.10" shape="1635.53,878.14 1635.53,878.14"/>
    </edge>
    <edge id=":11547353905_1" function="internal">
        <lane id=":11547353905_1_0" index="0" allow="bus bicycle" speed="8.33" length="0.10" shape="1638.43,876.78 1638.43,876.78"/>
    </edge>
    <edge id=":11547353906_0" function="internal">
        <lane id=":11547353906_0_0" index="0" disallow="tram rail_urban rail rail_electric rail_fast ship" speed="8.33" length="0.30" shape="1618.02,847.51 1617.89,847.24"/>
    </edge>
    <edge id=":11547353906_1" function="internal">
        <lane id=":11547353906_1_0" index="0" disallow="tram rail_urban rail rail_electric rail_fast ship" speed="8.33" length="0.30" shape="1620.74,845.80 1620.88,846.07"/>
    </edge>
    <edge id=":11547353907_0" function="internal">
        <lane id=":11547353907_0_0" index="0" disallow="tram rail_urban rail rail_electric rail_fast ship" speed="5.56" length="0.10" shape="1645.58,859.34 1645.58,859.34"/>
    </edge>
    <edge id=":11547353907_1" function="internal">
        <lane id=":11547353907_1_0" index="0" disallow="tram rail_urban rail rail_electric rail_fast ship" speed="5.56" length="0.10" shape="1644.12,856.50 1644.12,856.50"/>
    </edge>
    <edge id=":11547353908_0" function="internal">
        <lane id=":11547353908_0_0" index="0" disallow="tram rail_urban rail rail_electric rail_fast ship" speed="8.33" length="0.10" shape="1610.68,871.89 1610.68,871.89"/>
    </edge>
    <edge id=":1187584440_0" function="internal">
        <lane id=":1187584440_0_0" index="0" allow="rail rail_electric rail_fast" speed="25.00" length="39.94" shape="2057.78,393.45 2022.40,411.98"/>
    </edge>
    <edge id=":1187584440_1" function="internal" bidi=":1187584440_2">
        <lane id=":1187584440_1_0" index="0" allow="rail rail_electric rail_fast" speed="33.33" length="41.04" shape="2057.78,393.45 2020.00,409.49"/>
    </edge>
    <edge id=":1187584440_2" function="internal" bidi=":1187584440_1">
        <lane id=":1187584440_2_0" index="0" allow="rail rail_electric rail_fast" speed="33.33" length="41.04" shape="2020.00,409.49 2057.78,393.45"/>
    </edge>
    <edge id=":1187584456_0" function="internal">
        <lane id=":1187584456_0_0" index="0" allow="rail rail_electric rail_fast" speed="16.67" length="46.43" shape="2024.61,414.64 2016.65,418.03 2003.35,423.96 1990.11,430.00 1982.31,433.74"/>
    </edge>
    <edge id=":1187584456_1" function="internal">
        <lane id=":1187584456_1_0" index="0" allow="rail rail_electric rail_fast" speed="16.67" length="46.52" shape="2024.61,414.64 1980.92,430.60"/>
    </edge>
    <edge id=":1187584456_2" function="internal">
        <lane id=":1187584456_2_0" index="0" allow="rail rail_electric rail_fast" speed="16.67" length="45.42" shape="2022.23,412.08 1982.31,433.74"/>
    </edge>
    <edge id=":1187584456_3" function="internal">
        <lane id=":1187584456_3_0" index="0" allow="rail rail_electric rail_fast" speed="16.67" length="45.28" shape="2022.23,412.08 2014.58,415.75 2001.69,421.62 1988.74,427.35 1980.92,430.60"/>
    </edge>
    <edge id=":1187584459_0" function="internal">
        <lane id=":1187584459_0_0" index="0" allow="rail rail_electric rail_fast" speed="23.61" length="56.48" shape="1005.69,811.08 950.63,823.68"/>
    </edge>
    <edge id=":1187584459_1" function="internal" bidi=":1187584459_2">
        <lane id=":1187584459_1_0" index="0" allow="rail rail_electric rail_fast" speed="30.56" length="56.48" shape="1004.86,807.90 950.63,823.68"/>
    </edge>
    <edge id=":1187584459_2" function="internal" bidi=":1187584459_1">
        <lane id=":1187584459_2_0" index="0" allow="rail rail_electric rail_fast" speed="30.56" length="56.48" shape="950.63,823.68 1004.86,807.90"/>
    </edge>
    <edge id=":1187584462_0" function="internal">
        <lane id=":1187584462_0_0" index="0" allow="rail rail_electric rail_fast" speed="29.17" length="53.26" shape="1756.25,543.66 1709.18,568.60"/>
    </edge>
    <edge id=":1187584462_1" function="internal" bidi=":1187584462_2">
        <lane id=":1187584462_1_0" index="0" allow="rail rail_electric rail_fast" speed="41.67" length="53.26" shape="1756.25,543.66 1707.73,565.63"/>
    </edge>
    <edge id=":1187584462_2" function="internal" bidi=":1187584462_1">
        <lane id=":1187584462_2_0" index="0" allow="rail rail_electric rail_fast" speed="41.67" length="53.26" shape="1707.73,565.63 1756.25,543.66"/>
    </edge>
    <edge id=":1187584466_0" function="internal">
        <lane id=":1187584466_0_0" index="0" allow="rail rail_electric rail_fast" speed="16.67" length="0.22" shape="1419.62,672.19 1419.83,672.10"/>
    </edge>
    <edge id=":1187584467_0" function="internal" bidi=":1187584467_2">
        <lane id=":1187584467_0_0" index="0" allow="rail rail_electric rail_fast" speed="41.67" length="49.69" shape="1872.51,490.47 1827.32,511.13"/>
    </edge>
    <edge id=":1187584467_1" function="internal">
        <lane id=":1187584467_1_0" index="0" allow="rail rail_electric rail_fast" speed="43.05" length="37.80" shape="1860.86,493.72 1827.32,511.13"/>
    </edge>
    <edge id=":1187584467_2" function="internal" bidi=":1187584467_0">
        <lane id=":1187584467_2_0" index="0" allow="rail rail_electric rail_fast" speed="41.67" length="49.69" shape="1827.32,511.13 1872.51,490.47"/>
    </edge>
    <edge id=":1187584479_0" function="internal">
        <lane id=":1187584479_0_0" index="0" allow="rail rail_electric rail_fast" speed="44.44" length="43.83" shape="1187.25,741.89 1145.78,756.09"/>
    </edge>
    <edge id=":1187584479_1" function="internal">
        <lane id=":1187584479_1_0" index="0" allow="rail rail_electric rail_fast" speed="44.44" length="43.83" shape="1187.25,741.89 1179.31,744.14 1166.09,747.56 1152.84,750.90 1144.83,752.91"/>
    </edge>
    <edge id=":1187584480_0" function="internal">
        <lane id=":1187584480_0_0" index="0" allow="rail rail_electric rail_fast" speed="16.67" length="0.30" shape="1746.56,536.60 1746.29,536.72"/>
    </edge>