<?xml version="1.0" encoding="UTF-8"?>

<!-- generated on 2024-02-27 13:30:42.804006 by ptlines2flows.py v1_19_0+0000-baa66a0f364
<configuration>
    <net-file value="crr.net.xml"/>
    <ptlines-file value="ptlines.xml"/>
    <ptstops-file value="additional.xml"/>
    <period value="1200.0"/>
</configuration>
-->

<routes xmlns:xsi="http://www.w3.org/2001/XMLSchema-instance" xsi:noNamespaceSchemaLocation="http://sumo.dlr.de/xsd/routes_file.xsd">
    <vType id="bus" vClass="bus"/>
    <vType id="tram" vClass="tram"/>
    <vType id="train" vClass="rail"/>
    <vType id="subway" vClass="rail_urban"/>
    <vType id="light_rail" vClass="rail_urban"/>
    <vType id="monorail" vClass="rail_urban"/>
    <vType id="trolleybus" vClass="bus"/>
    <vType id="minibus" vClass="bus"/>
    <vType id="share_taxi" vClass="taxi"/>
    <vType id="aerialway" vClass="rail_urban" length="2.5" width="2" personCapacity="4"/>
    <vType id="ferry" vClass="ship"/>
    <route id="bus_104:2" color="211,157,112" edges="-38509828#3 -38509828#2 -38509828#1 -38509828#0" >
        <stop busStop="-2724353965" duration="20" until="43.0"/> <!-- Finkenweg -->
        <stop busStop="-443377546" duration="20" until="125.0"/> <!-- Schwalbenweg -->
    </route>
    <route id="bus_104:3" color="211,157,112" edges="-38509828#3 -38509828#2 -38509828#1 -38509828#0" >
        <stop busStop="-2724353965" duration="20" until="76.0"/> <!-- Finkenweg -->
        <stop busStop="-443377546" duration="20" until="157.0"/> <!-- Schwalbenweg -->
    </route>
    <route id="light_rail_U9:0" color="255,213,3" edges="4338256 172027782#0 172027782#1 172027782#2 172027782#3 172027782#4 172027782#5 172027782#6" >
        <stop busStop="4165943332" duration="20" until="31.0"/> <!-- Hedelfingen -->
        <stop busStop="26407025" duration="20" until="113.0"/> <!-- Hedelfinger Straße -->
        <stop busStop="26407024" duration="20" until="182.0"/> <!-- Wangen Marktplatz -->
    </route>
    <route id="light_rail_U13:0" color="237,165,180" edges="4338256 172027782#0 172027782#1 172027782#2 172027782#3 172027782#4 172027782#5 172027782#6 172027782#7 172027782#8" >
        <stop busStop="4165943332" duration="20" until="31.0"/> <!-- Hedelfingen -->
        <stop busStop="26407025" duration="20" until="110.0"/> <!-- Hedelfinger Straße -->
        <stop busStop="26407024" duration="20" until="178.0"/> <!-- Wangen Marktplatz -->
        <stop busStop="1749738363" duration="20" until="241.0"/> <!-- Wasenstraße -->
    </route>
    <route id="light_rail_U13:1" color="237,165,180" edges="68552415#0 68552415#1 68552415#2 68552415#3 68552415#4 68552415#5 68552415#6 68552415#7 68552415#8 172027783" >
        <stop busStop="279915707" duration="20" until="46.0"/> <!-- Wasenstraße -->
        <stop busStop="279915677" duration="20" until="109.0"/> <!-- Wangen Marktplatz -->
        <stop busStop="279915667" duration="20" until="178.0"/> <!-- Hedelfinger Straße -->
        <stop busStop="279930071" duration="20" until="252.0"/> <!-- Hedelfingen -->
    </route>
    <route id="bus_121:0" color="51,92,113" edges="-27531049#6 -27531049#5 -27531049#4 -27531049#3 -27531049#2 -27531049#1 -27531049#0 44459823#0 44459823#1 44459823#2 207083330 -44459774#3 -44459774#2" >
        <stop busStop="-245017149" duration="20" until="31.0"/> <!-- Oberesslingen Bahnhof (Süd) -->
        <stop busStop="-3883265541" duration="20" until="119.0"/> <!-- Schwertmühle -->
        <stop busStop="-3883265532" duration="20" until="196.0"/> <!-- Max-Planck-Straße -->
        <stop busStop="-3883265542" duration="20" until="271.0"/> <!-- Sirnauer Brücke -->
    </route>
    <route id="bus_61:1" color="252,103,177" edges="431444776 431444780#0 431444780#1 431444780#2 431444780#3 548813064#0 548813064#1 548813063 29462298#0 29462298#1 29462298#2 548669408 -548669406 -548669407 -548669410#1 -548669410#0 -317544600#3 -317544600#2 -317544600#1 -317544600#0 -288806326#2 -288806326#1 -288806326#0 -5782992#1 -5782992#0 5783099#0 5783099#1 5783099#2 288808359 288806325#0 288806325#1 36989666 548626555 -36990115 -676917368#1 -676917368#0" >
        <stop busStop="269253233" duration="20" until="34.0"/> <!-- Haus am Weinberg -->
        <stop busStop="895825832" duration="20" until="95.0"/> <!-- Ebniseestraße -->
        <stop busStop="-5300400686" duration="20" until="195.0"/> <!-- Bergstaffelstraße -->
        <stop busStop="-895825744" duration="20" until="278.0"/> <!-- Obertürkheim Bahnhof -->
    </route>
    <route id="bus_121:1" color="51,92,113" edges="44459774#2 44459774#3 384972992 44459767 -44459823#2 -44459823#1 -44459823#0 27531049#0 27531049#1 27531049#2 27531049#3 27531049#4 27531049#5 27531049#6 392589607#0 392589607#1 392589607#2 392589607#3" >
        <stop busStop="6537655136" duration="20" until="43.0"/> <!-- Sirnauer Brücke -->
        <stop busStop="3883265532" duration="20" until="117.0"/> <!-- Max-Planck-Straße -->
        <stop busStop="3883265541" duration="20" until="194.0"/> <!-- Schwertmühle -->
        <stop busStop="287465536" duration="20" until="286.0"/> <!-- Oberesslingen Bahnhof (Süd) -->
    </route>
    <route id="light_rail_U9:1" color="255,213,3" edges="68552415#0 68552415#1 68552415#2 68552415#3 68552415#4 68552415#5 68552415#6 68552415#7 68552415#8 172027783" >
        <stop busStop="279915707" duration="20" until="46.0"/> <!-- Wasenstraße -->
        <stop busStop="279915677" duration="20" until="109.0"/> <!-- Wangen Marktplatz -->
        <stop busStop="279915667" duration="20" until="178.0"/> <!-- Hedelfinger Straße -->
        <stop busStop="279930071" duration="20" until="252.0"/> <!-- Hedelfingen -->
    </route>
    <route id="train_RE_5:0" edges="156199089 102848475#0 102848475#1 102848507#0 102848507#1 244328491 460942121#0 460942121#1 25423242#0 25423242#1 17096019 85959749#0 85959749#1 68906765 70395557#0 70395557#1 48316096#0 48316096#1 48316096#2" >
        <stop busStop="2661523902" duration="20" until="54.0"/> <!-- Esslingen (Neckar) -->
        <stop busStop="3068257018" duration="20" until="275.0"/> <!-- Stuttgart-Obertürkheim -->
    </route>
    <route id="bus_138:1" color="200,43,64" edges="-387498880#1 -387498880#0 -192671023 -23286910 -386236344#1 -386236344#0 -220797339 34407918#0 34407918#1 -220797331 -355357507 -220797337#1 -220797337#0 -34187753#1 -34187753#0 -613399394 -613399395 -108793831#1 -108793831#0 -613399393#1 -613399393#0 -37871883 -23320851 -38509828#3 -38509828#2 -38509828#1 -38509828#0" >
        <stop busStop="-3933810890" duration="20" until="72.0"/> <!-- See -->
        <stop busStop="-2724353965" duration="20" until="238.0"/> <!-- Finkenweg -->
        <stop busStop="-443377546" duration="20" until="317.0"/> <!-- Schwalbenweg -->
    </route>
    <route id="bus_61:0" color="252,103,177" edges="-26263195#1 -26263195#0 25460405 -26245946#1 -26245946#0 548626550 36989717#0 36989717#1 -288806325#1 -288806325#0 288806325#0 288806325#1 36989666 548626555 36990049#0 36990049#1 26245946#0 26245946#1 -26245946#1 -26245946#0 548626550 36989717#0 36989717#1 -288806325#1 -288806325#0 -288808359 -5783099#2 -5783099#1 -5783099#0 5782992#0 5782992#1 288806326#0 288806326#1 288806326#2 317544600#0 317544600#1 317544600#2 317544600#3 548669410#0 548669410#1 548669407 548669406 548669409 29462349#0 29462349#1 -548813064#1 -548813064#0 -431444780#3 -431444780#2 -431444780#1 -431444780#0 -431444776" >
        <stop busStop="-5226460705" duration="20" until="31.0"/> <!-- Obertürkheim Bahnhof -->
        <stop busStop="430160899" duration="20" until="92.0"/> <!-- None -->
        <stop busStop="282837104" duration="20" until="204.0"/> <!-- Obertürkheim Bahnhof (Göppinger Straße) -->
        <stop busStop="5300400686" duration="20" until="273.0"/> <!-- Bergstaffelstraße -->
        <stop busStop="895825813" duration="20" until="334.0"/> <!-- Ebniseestraße -->
        <stop busStop="-269253233" duration="20" until="396.0"/> <!-- Haus am Weinberg -->
    </route>
    <route id="bus_816:1" edges="-294067066#1 -294067066#0 -435365553#2 -435365553#1 -435365553#0 -75077806 163301140#0 163301140#1 163301140#2 163301140#3 163301140#4 163301140#5 163301140#6 75077804#0 75077804#1 75077804#2 75077804#3 75077804#4 343305746#0 343305746#1 343305746#2 343305746#3 343305746#4 343305746#5 -12787707#1 -12787707#0 -875800261#3 -875800261#2 -875800261#1 -875800261#0 -35327641#2 -35327641#1 -35327641#0 -379988289#2 -379988289#1 -379988289#0 -157693253#2 -157693253#1 -157693253#0 -237134496#12 -237134496#11 -237134496#10 -237134496#9 -237134496#8 -237134496#7 -237134496#6 -237134496#5 -237134496#4 -237134496#3 -237134496#2 -237134496#1 -237134496#0 -432904395 -25117945#1 -25117945#0 -432904397#4 -432904397#3 -432904397#2 -432904397#1 -432904397#0 -432904396 -29146462#4 -29146462#3 -29146462#2 -29146462#1 -29146462#0 29146499#0 29146499#1 29146499#2 161599839#0" >
        <stop busStop="-6260408371" duration="20" until="34.0"/> <!-- Ruit Scharnhäuser Straße -->
        <stop busStop="6262814783" duration="20" until="139.0"/> <!-- Ruit Kirche -->
        <stop busStop="-4379712496" duration="20" until="210.0"/> <!-- Ruit -->
        <stop busStop="-886304580" duration="20" until="305.0"/> <!-- Ruit Im Kapf -->
        <stop busStop="320617737" duration="20" until="411.0"/> <!-- Ruit Krankenhaus -->
    </route>
    <route id="light_rail_U8:1" color="195,180,125" edges="26946520#0 26946520#1 26946517#0 26946517#1 26946517#2 26946513 40985104#0 40985104#1 40985104#2 40985104#3 40985104#4 40985104#5" >
        <stop busStop="295255872" duration="20" until="53.0"/> <!-- Ruit -->
        <stop busStop="295255894" duration="20" until="128.0"/> <!-- Ruit Zinsholz -->
        <stop busStop="295255933" duration="20" until="203.0"/> <!-- Parksiedlung -->
        <stop busStop="499482917" duration="20" until="271.0"/> <!-- Scharnhauser Park -->
        <stop busStop="499482936" duration="20" until="343.0"/> <!-- Scharnhauser Park Kreuzbrunnen -->
        <stop busStop="499482984" duration="20" until="440.0"/> <!-- Nellingen Technische Akademie -->
        <stop busStop="2015375187" duration="20" until="498.0"/> <!-- Nellingen Ostfildern -->
    </route>
    <route id="light_rail_U8:0" color="195,180,125" edges="89344777#0 89344777#1 89344777#2 89344777#3 89344777#4 89344777#5 23442366 12815133 26946516#0 26946516#1" >
        <stop busStop="253915614" duration="20" until="46.0"/> <!-- Nellingen Ostfildern -->
        <stop busStop="271464257" duration="20" until="104.0"/> <!-- Nellingen Technische Akademie -->
        <stop busStop="66828113" duration="20" until="201.0"/> <!-- Scharnhauser Park Kreuzbrunnen -->
        <stop busStop="66828122" duration="20" until="269.0"/> <!-- Scharnhauser Park -->
        <stop busStop="270196725" duration="20" until="339.0"/> <!-- Parksiedlung -->
        <stop busStop="270599198" duration="20" until="413.0"/> <!-- Ruit Zinsholz -->
        <stop busStop="113591455" duration="20" until="491.0"/> <!-- Ruit -->
    </route>
    <route id="bus_816:0" edges="161599839#0 161599839#1 35818988 35880306 644467860 29146462#0 29146462#1 29146462#2 29146462#3 29146462#4 432904396 432904397#0 432904397#1 432904397#2 432904397#3 432904397#4 25117945#0 25117945#1 432904395 237134496#0 237134496#1 237134496#2 237134496#3 237134496#4 237134496#5 237134496#6 237134496#7 237134496#8 237134496#9 237134496#10 237134496#11 237134496#12 157693253#0 157693253#1 157693253#2 379988289#0 379988289#1 379988289#2 35327641#0 35327641#1 35327641#2 875800261#0 875800261#1 875800261#2 875800261#3 12787707#0 12787707#1 -343305746#5 -343305746#4 -343305746#3 -343305746#2 -343305746#1 -343305746#0 -75077804#4 -75077804#3 -75077804#2 -75077804#1 -75077804#0 -163301140#6 -163301140#5 -163301140#4 -163301140#3 -163301140#2 -163301140#1 -163301140#0 75077806 435365553#0 435365553#1 435365553#2 294067066#0 294067066#1 294067066#2 294067066#3 294067066#4 294067066#5 294067066#6 294067066#7 294067066#8 294067066#9 294067066#10" >
        <stop busStop="320617737" duration="20" until="35.0"/> <!-- Ruit Krankenhaus -->
        <stop busStop="886304632" duration="20" until="162.0"/> <!-- Ruit Im Kapf -->
        <stop busStop="886304631" duration="20" until="244.0"/> <!-- Ruit -->
        <stop busStop="-66830400" duration="20" until="364.0"/> <!-- Ruit Kirche -->
        <stop busStop="6260408369" duration="20" until="506.0"/> <!-- Ruit Scharnhäuser Straße -->
    </route>
    <route id="bus_65:1" color="255,106,32" edges="27607327#0 27607327#1 -27607327#1 -27607327#0 27607327#0 27607327#1 569642543 161583692#0 161583692#1 161583692#2 161583692#3 163491634 763418587 278026024#0 278026024#1 29559568#0 29559568#1 29559568#2 29555966 161583680 243216859 243216872#0 243216872#1 243216872#2 243216872#3 243216853 29555873#0 29555873#1 29554796 244530981#0 244530981#1 244530981#2 29555469 29555412 244576556 548822668 29556306#0 29556306#1 29556306#2 548822665 548822666 237155758 23062040 24780159#0 24780159#1 316814479 35359315#0 35359315#1 35359315#2 431480688 25642408 288806327 431444812 431444811 25642410#0 25642410#1 25642410#2 5783099#0 5783099#1 5783099#2 288808359 288806325#0 288806325#1 36989666 548626555 -36990115 -676917368#1 -676917368#0" >
        <stop busStop="895825781" duration="20" until="35.0"/> <!-- None -->
        <stop busStop="282836158" duration="20" until="112.0"/> <!-- Ährenweg -->
        <stop busStop="895825803" duration="20" until="226.0"/> <!-- Hedelfingen -->
        <stop busStop="895825839" duration="20" until="364.0"/> <!-- Otto-Hirsch-Brücken -->
        <stop busStop="-895825744" duration="20" until="479.0"/> <!-- Obertürkheim Bahnhof -->
    </route>
    <route id="light_rail_U7:1" color="14,180,141" edges="26946520#0 26946520#1 26946517#0 26946517#1 26946517#2 26946513 40985104#0 40985104#1 40985104#2 40985104#3 40985104#4 40985104#5" >
        <stop busStop="295255872" duration="20" until="44.0"/> <!-- Ruit -->
        <stop busStop="295255894" duration="20" until="161.0"/> <!-- Ruit Zinsholz -->
        <stop busStop="295255933" duration="20" until="237.0"/> <!-- Parksiedlung -->
        <stop busStop="499482917" duration="20" until="306.0"/> <!-- Scharnhauser Park -->
        <stop busStop="499482936" duration="20" until="379.0"/> <!-- Scharnhauser Park Kreuzbrunnen -->
        <stop busStop="499482984" duration="20" until="476.0"/> <!-- Nellingen Technische Akademie -->
        <stop busStop="2015375187" duration="20" until="534.0"/> <!-- Nellingen Ostfildern -->
    </route>
    <route id="bus_62:1" color="24,197,244" edges="27607327#0 27607327#1 -27607327#1 -27607327#0 27607327#0 27607327#1 569642543 161583692#0 161583692#1 161583692#2 161583692#3 163491634 763418587 278026024#0 278026024#1 29559568#0 29559568#1 29559568#2 29555966 161583680 243216859 243216872#0 243216872#1 243216872#2 243216872#3 243216853 29555873#0 29555873#1 29554796 244530981#0 244530981#1 244530981#2 29555469 29555412 244576556 548822668 29556306#0 29556306#1 29556306#2 548822665 548822666 237155758 23062040 24780159#0 24780159#1 316814479 35359315#0 35359315#1 35359315#2 431480688 25642408 288806327 431444812 431444811 25642410#0 25642410#1 25642410#2 5783099#0 5783099#1 5783099#2 288808359 288806325#0 288806325#1 36989666 548626555 -36990115 -676917368#1 -676917368#0 -527346555 -540190677 -26263195#1 -26263195#0 25460405 -192950772 -192950762 -570081633 -570455523 -570081632 -570455526#1 -570455526#0 -154230466#4 -154230466#3 -154230466#2 -154230466#1 -154230466#0 -570449182#1 -570449182#0" >
        <stop busStop="895825781" duration="20" until="36.0"/> <!-- None -->
        <stop busStop="282836158" duration="20" until="114.0"/> <!-- Ährenweg -->
        <stop busStop="895825803" duration="20" until="185.0"/> <!-- Hedelfingen -->
        <stop busStop="895825839" duration="20" until="314.0"/> <!-- Otto-Hirsch-Brücken -->
        <stop busStop="-895825744" duration="20" until="431.0"/> <!-- Obertürkheim Bahnhof -->
        <stop busStop="-278558094" duration="20" until="537.0"/> <!-- Im Mäder -->
    </route>
    <route id="light_rail_U7:0" color="14,180,141" edges="89344777#0 89344777#1 89344777#2 89344777#3 89344777#4 89344777#5 23442366 12815133 26946516#0 26946516#1" >
        <stop busStop="253915614" duration="20" until="46.0"/> <!-- Nellingen Ostfildern -->
        <stop busStop="271464257" duration="20" until="104.0"/> <!-- Nellingen Technische Akademie -->
        <stop busStop="66828113" duration="20" until="201.0"/> <!-- Scharnhauser Park Kreuzbrunnen -->
        <stop busStop="66828122" duration="20" until="269.0"/> <!-- Scharnhauser Park -->
        <stop busStop="270196725" duration="20" until="339.0"/> <!-- Parksiedlung -->
        <stop busStop="270599198" duration="20" until="413.0"/> <!-- Ruit Zinsholz -->
        <stop busStop="113591455" duration="20" until="491.0"/> <!-- Ruit -->
    </route>
    <route id="bus_65:0" color="255,106,32" edges="-676917368#0 -527346555 -540190677 -26263195#1 -26263195#0 25460405 -26245946#1 -26245946#0 548626550 36989717#0 36989717#1 -288806325#1 -288806325#0 288806325#0 288806325#1 36989666 548626555 36990049#0 36990049#1 26245946#0 26245946#1 -26245946#1 -26245946#0 548626550 36989717#0 36989717#1 -288806325#1 -288806325#0 -288808359 -5783099#2 -5783099#1 -5783099#0 -25642410#2 -25642410#1 -25642410#0 -431444811 -431444812 -288806327 -25642408 -431480688 -35359315#2 -35359315#1 -35359315#0 -316814479 -24780159#1 -24780159#0 -23062040 -237155758 -548822666 -548822665 -29556306#2 -29556306#1 -29556306#0 548822667 169217571#0 169217571#1 25642412 25749760 244531066#0 244531066#1 244531066#2 548822664 25643477 24780172#0 24780172#1 244530807 243216856 169217573#0 169217573#1 243216863 243216867#0 243216867#1 243216867#2 569646673 29559418#0 29559418#1 29559418#2 29559418#3 -278026024#1 -278026024#0 -763418587 -163491634 -161583692#3 -161583692#2 -161583692#1 -161583692#0 -569642543 -27607327#1 -27607327#0 27607327#0 27607327#1 -27607327#1" >
        <stop busStop="-895825744" duration="20" until="37.0"/> <!-- Obertürkheim Bahnhof -->
        <stop busStop="430160899" duration="20" until="130.0"/> <!-- None -->
        <stop busStop="282837104" duration="20" until="243.0"/> <!-- Obertürkheim Bahnhof (Göppinger Straße) -->
        <stop busStop="-6501447771" duration="20" until="353.0"/> <!-- Otto-Hirsch-Brücken -->
        <stop busStop="895825756" duration="20" until="461.0"/> <!-- Hedelfingen -->
        <stop busStop="-895825842" duration="20" until="560.0"/> <!-- None -->
        <stop busStop="-282836338" duration="20" until="637.0"/> <!-- Ährenweg -->
    </route>
    <route id="bus_119:0" color="0,101,183" edges="390062308 390062307 342553326#0 342553326#1 -146911733 -468914851 -178668745 4811517 146910022#0 146910022#1 345748663 26738365#0 26738365#1 265461448 265461450 438385887 423481774#0 423481774#1 220150010 423481781 10492736 345736590 265461442 345736580 180667064#0 180667064#1 345736584 265461444#0 265461444#1 692610294 1157387458 345736587#0 345736587#1 30998717#0 30998717#1 11335846#0 11335846#1 926867325 345736604 926867324 265461453 265461454 926867322 23182939 265450242 345736606 686955221 926867319 926867318 345736600 926867317 345736602 926867316 345736598 439857030 345736605 926867315 139468854 1079724463 926867313 139468853 926867314 30998715 30998714 211686719 11336059 156261679#0 156261679#1 156261680 255241186 697552586 -926867310 -255241187 -1165983434#1 -1165983434#0 -755497921 -231875742#2 -231875742#1 -231875742#0 755497928 755497920 755497919 10492738" >
        <stop busStop="3566577206" duration="20" until="31.0"/> <!-- Esslingen (N) ZOB -->
        <stop busStop="3933810892" duration="20" until="206.0"/> <!-- Weilstraße -->
        <stop busStop="2711169196" duration="20" until="281.0"/> <!-- Im Holder -->
        <stop busStop="89023451" duration="20" until="422.0"/> <!-- Oberer Eisbergweg -->
        <stop busStop="3933810893" duration="20" until="500.0"/> <!-- Zollberg -->
        <stop busStop="-3933810885" duration="20" until="579.0"/> <!-- Mutzenreisstraße -->
        <stop busStop="3837694347" duration="20" until="642.0"/> <!-- Nellinger Linde -->
    </route>
    <route id="bus_62:0" color="24,197,244" edges="570449182#1 154230466#0 154230466#1 154230466#2 154230466#3 154230466#4 570455526#0 570455526#1 570081632 570455523 570081633 192950762 192950772 -26245946#1 -26245946#0 548626550 36989717#0 36989717#1 -288806325#1 -288806325#0 288806325#0 288806325#1 36989666 548626555 36990049#0 36990049#1 26245946#0 26245946#1 -26245946#1 -26245946#0 548626550 36989717#0 36989717#1 -288806325#1 -288806325#0 -288808359 -5783099#2 -5783099#1 -5783099#0 -25642410#2 -25642410#1 -25642410#0 -431444811 -431444812 -288806327 -25642408 -431480688 -35359315#2 -35359315#1 -35359315#0 -316814479 -24780159#1 -24780159#0 -23062040 -237155758 -548822666 -548822665 -29556306#2 -29556306#1 -29556306#0 548822667 169217571#0 169217571#1 25642412 25749760 244531066#0 244531066#1 244531066#2 548822664 25643477 24780172#0 24780172#1 244530807 243216856 169217573#0 169217573#1 243216863 243216867#0 243216867#1 243216867#2 569646673 29559418#0 29559418#1 29559418#2 29559418#3 -278026024#1 -278026024#0 -763418587 -163491634 -161583692#3 -161583692#2 -161583692#1 -161583692#0 -569642543 -27607327#1 -27607327#0 27607327#0 27607327#1 -27607327#1" >
        <stop busStop="278558096" duration="20" until="35.0"/> <!-- Im Mäder -->
        <stop busStop="430160899" duration="20" until="168.0"/> <!-- None -->
        <stop busStop="282837104" duration="20" until="281.0"/> <!-- Obertürkheim Bahnhof (Göppinger Straße) -->
        <stop busStop="-6501447771" duration="20" until="392.0"/> <!-- Otto-Hirsch-Brücken -->
        <stop busStop="895825756" duration="20" until="499.0"/> <!-- Hedelfingen -->
        <stop busStop="-895825842" duration="20" until="598.0"/> <!-- None -->
        <stop busStop="-282836338" duration="20" until="675.0"/> <!-- Ährenweg -->
    </route>
    <route id="bus_113:3" color="24,197,244" edges="-387498880#1 -387498880#0 -192671023 -23286910 -386236344#1 -386236344#0 -220797339 -130569447 -385259856 -24782849#1 -24782849#0 -385259858 4813442 204724401 386239008 204724398 24447759#0 24447759#1 390216938 -441764367#1 -441764367#0 -474485726 -26249197 314609084 390216942 474485723#0 474485723#1 474485723#2 474485723#3 474485722 24008852#0 24008852#1 24008852#2 24008852#3 474485721 24008850#0 24008850#1 474485720 24302935 -390216943 -24511285#2 -24511285#1 -24511285#0 189364993#0 189364993#1 -693946719#1 -693946719#0 -178668743 -202630135 -178668744 -387401256#1 -387401256#0 -290577631 -169218302#1 -169218302#0 -54883015 -290577629#1 -290577629#0 -17097227 -109592895 350217704#0 350217704#1 350217704#2 350217704#3 350217704#4 387401257 350217703 31787956 911970184 911970185 939228251 178668745 468914851 146911733 316354392 675777502" >
        <stop busStop="-3933810890" duration="20" until="39.0"/> <!-- See -->
        <stop busStop="3933810878" duration="20" until="151.0"/> <!-- Adenauerbrücke (oben) -->
        <stop busStop="4684341514" duration="20" until="261.0"/> <!-- Neckarfreibad -->
        <stop busStop="3933810887" duration="20" until="350.0"/> <!-- Schillerplatz -->
        <stop busStop="-1219607572" duration="20" until="493.0"/> <!-- Merkel'sches Bad -->
        <stop busStop="1254192526" duration="20" until="578.0"/> <!-- Pliensauturm -->
        <stop busStop="3224629436" duration="20" until="692.0"/> <!-- Esslingen (N) ZOB -->
    </route>
    <route id="bus_119:1" color="0,101,183" edges="755497929#2 755497922 231875742#0 231875742#1 231875742#2 755497921 1165983434#0 1165983434#1 255241187 926867310 -697552586 -255241186 -156261680 -156261679#1 -156261679#0 21310559 234348433 -30998714 -30998715 -926867314 -139468853 -926867313 -1079724463 -139468854 -926867315 -345736605 -439857030 -345736598 -926867316 -345736602 -926867317 -345736600 -926867318 -926867319 -686955221 -345736606 -265450242 -23182939 -926867322 -265461454 345736599 1157387459#0 1157387459#1 1157387459#2 11335855#0 11335855#1 345736577 265461445#0 265461445#1 169097422 265461443 345736597 345736596 345736592 423481788#0 423481788#1 220150011#0 220150011#1 423481777 220150420 265461451 23205595 350147738 10492734#0 10492734#1 17096026 138203613 156260261 138203608 138203611#0 138203611#1 169218510#0 169218510#1 -17097227 -109592895 350217704#0 350217704#1 350217704#2 350217704#3 350217704#4 387401257 350217703 31787956 911970184 911970185 939228251 178668745 468914851 -332292229 -384972985 268558823#0 268558823#1 390062308" >
        <stop busStop="89026017" duration="20" until="43.0"/> <!-- Nellinger Linde -->
        <stop busStop="3933810885" duration="20" until="103.0"/> <!-- Mutzenreisstraße -->
        <stop busStop="2426004802" duration="20" until="197.0"/> <!-- Zollberg -->
        <stop busStop="-89023451" duration="20" until="264.0"/> <!-- Oberer Eisbergweg -->
        <stop busStop="-6550964524" duration="20" until="364.0"/> <!-- Im Holder -->
        <stop busStop="3523843331" duration="20" until="437.0"/> <!-- Weilstraße -->
        <stop busStop="3872841438" duration="20" until="563.0"/> <!-- Maille -->
        <stop busStop="1254192526" duration="20" until="640.0"/> <!-- Pliensauturm -->
        <stop busStop="3566577206" duration="20" until="769.0"/> <!-- Esslingen (N) ZOB -->
    </route>
    <route id="bus_X20:0" color="0,191,243" edges="232962013#1 488937080 232962012 399708758 50257937#0 50257937#1 50257937#2 50257937#3 50257937#4 50257937#5 50257937#6 50257937#7 50257937#8 280092576 13622269 387117386#0 387117386#1 387117386#2 387117386#3 387117387 1028791818 412792775 280092588#0 280092588#1 280092588#2 13622267 280092625#0 280092625#1 280092625#2 387212710#0 387212710#1 387212710#2 280128591 280128594#0 280128594#1 280128594#2 280128594#3 560583318 280128593 280092618 280092637 560583323 280092630 280092634#0 280092634#1 390062309 280092640 280128590 403701944 280092614 280092647 -280092621#1 -280092621#0 42229180#0 42229180#1 280124322 280092583 202499355#0 202499355#1 390062305 387155264 387155265 202499353#0 202499353#1 555758425#0 555758425#1 202499351#0 202499351#1 202499351#2 202499351#3 202555478#0 202555478#1 202555478#2 202555475#0 202555475#1 202555475#2 202555475#3 202555475#4 202555475#5 202555475#6 202555475#7 202555475#8 202555475#9 202555475#10 202555475#11 186037699#0 186037699#1 594324466 436153520 385405402 787900923 436153519 186037710 -281921554 -281956711#1 -281956711#0 -281956710#1 -281956710#0 385405398 385405409#0 385405409#1 785623013#0 785623013#1 281956714 787951056#0 787951056#1 385405407#0 385405407#1 385405407#2 787951055 785623014 787951054 8812305#0 8812305#1 386831075 386831074 694012903 4807760 694012901 4807779#0 4807779#1 694012899#0 694012899#1 38361911#0 38361911#1 4807781#0 4807781#1 4807784#0 4807784#1 661603872 661603871 661603873#0 661603873#1 387155259 10419532#0 10419532#1 156260261 138203608 138203611#0 138203611#1 169218528#0 169218528#1 169218528#2 163737798 182055123#0 182055123#1 1157387449#0 1157387449#1 1157387455 182055500 1157387457 31787956 911970184 911970185 939228251 178668745 468914851 -332292229 268558821#0 268558821#1 393402212" >
        <stop busStop="274718800" duration="20" until="35.0"/> <!-- Katzenkopf -->
        <stop busStop="1967351665" duration="20" until="400.0"/> <!-- Flandernstraße -->
        <stop busStop="3566577205" duration="20" until="821.0"/> <!-- Esslingen (N) ZOB -->
    </route>
    <route id="bus_140:1" color="254,160,186" edges="-39761675#3 -39761675#2 -39761675#1 -39761675#0 -38361905#1 -38361905#0 -38279874 -4590682#2 -4590682#1 -4590682#0 -23999290 -23999291#2 -23999291#1 -23999291#0 -1169441387 -1169441388 -331752494 -1169441386 -331752492#3 -331752492#2 -331752492#1 -331752492#0 -4811457 183419043#0 183419043#1 183419043#2 183419042#0 183419042#1 183419042#2 183419042#3 183419042#4 183419042#5 183419042#6 183419042#7 183419042#8 183419042#9 183419042#10 183419042#11 273990570 273990571#0 273990571#1 273990571#2 273990571#3 273990571#4 273990571#5 273990571#6 4811453#0 4811453#1 4811453#2 4811453#3 4811453#4 4811453#5 4811453#6 4811453#7 -275526211 -4807837#2 -4807837#1 -4807837#0 -54883018#3 -54883018#2 -54883018#1 -54883018#0 -693946719#1 -693946719#0 -178668743 -202630135 -178668744 -387401256#1 -387401256#0 -290577631 -169218302#1 -169218302#0 -54883015 -290577629#1 -290577629#0 -17097227 -109592895 350217704#0 350217704#1 350217704#2 350217704#3 350217704#4 387401257 350217703 31787956 911970184 911970185 939228251 178668745 468914851 -332292229 268558821#0 268558821#1 393402212" >
        <stop busStop="-3872841449" duration="20" until="37.0"/> <!-- Zell Bahnhof -->
        <stop busStop="-29027281" duration="20" until="126.0"/> <!-- Alte Heusteige -->
        <stop busStop="434308192" duration="20" until="321.0"/> <!-- Lammgarten -->
        <stop busStop="-2626499005" duration="20" until="498.0"/> <!-- Charlottenplatz -->
        <stop busStop="1254192526" duration="20" until="751.0"/> <!-- Pliensauturm -->
        <stop busStop="3566577205" duration="20" until="859.0"/> <!-- Esslingen (N) ZOB -->
    </route>