<?xml version="1.0" encoding="UTF-8"?>

<!-- generated on 2023-05-01 16:58:05.722076 by osmWebWizard.py v1_16_0+0000-94ec4c6cd72
<configuration>
    <additional-files value="C:\Users\sader\Sumo\2023-05-01-16-57-47\osm_stops.add.xml,C:\Users\sader\Sumo\2023-05-01-16-57-47\osm_pt.rou.xml"/>
    <begin value="0"/>
    <end value="3600"/>
    <fringe-factor value="1"/>
    <insertion-density value="10.0"/>
    <net-file value="C:\Users\sader\Sumo\2023-05-01-16-57-47\osm.net.xml.gz"/>
    <persontrips value="True"/>
    <route-file value="C:\Users\sader\Sumo\2023-05-01-16-57-47\osm.pedestrian.rou.xml"/>
    <trip-attributes value="modes=&quot;public&quot;"/>
    <output-trip-file value="C:\Users\sader\Sumo\2023-05-01-16-57-47\osm.pedestrian.trips.xml"/>
    <prefix value="ped"/>
    <vehicle-class value="pedestrian"/>
    <persontrip.walk-opposite-factor value="0.8"/>
</configuration>
-->

<!-- generated on 2023-05-01 16:58:03 by Eclipse SUMO duarouter Version 1.16.0
<configuration xmlns:xsi="http://www.w3.org/2001/XMLSchema-instance" xsi:noNamespaceSchemaLocation="http://sumo.dlr.de/xsd/duarouterConfiguration.xsd">

    <input>
        <net-file value="C:\Users\sader\Sumo\2023-05-01-16-57-47\osm.net.xml.gz"/>
        <additional-files value="C:\Users\sader\Sumo\2023-05-01-16-57-47\osm_stops.add.xml,C:\Users\sader\Sumo\2023-05-01-16-57-47\osm_pt.rou.xml"/>
        <route-files value="C:\Users\sader\Sumo\2023-05-01-16-57-47\osm.pedestrian.trips.xml"/>
    </input>

    <output>
        <output-file value="C:\Users\sader\Sumo\2023-05-01-16-57-47\osm.pedestrian.rou.xml"/>
        <alternatives-output value="NUL"/>
    </output>

    <processing>
        <persontrip.walk-opposite-factor value="0.8"/>
    </processing>

    <time>
        <begin value="0"/>
        <end value="3600"/>
    </time>

    <report>
        <no-warnings value="true"/>
        <ignore-errors value="true"/>
        <no-step-log value="true"/>
    </report>

</configuration>
-->

<routes xmlns:xsi="http://www.w3.org/2001/XMLSchema-instance" xsi:noNamespaceSchemaLocation="http://sumo.dlr.de/xsd/routes_file.xsd">
    <vType id="ped_pedestrian" vClass="pedestrian"/>
    <person id="ped0" type="ped_pedestrian" depart="0.00">
        <walk edges="32133771#0 881678625#4 881678625#3 881678625#2 881678625#1 881678625#0 5108622#3 5108622#2 5108622#1 366030062#1 366030062#0 -23439978#1 -23439978#0 -169224407#3 -169224407#2 -23320724#0 449240485 449240484 449240482#1 449240483#1 449240483#0 449240479#0 449240478 169127863 1036411468 169127798 449241019 449241023#1 449241023#0 201507896 43709975 -16361899#5 -16361899#4 -16361899#3 -16361899#2"/>
    </person>
    <person id="ped3" type="ped_pedestrian" depart="5.14">
        <walk edges="692621734 -37181839#1 -37181839#0 -37181838#4 37181838#3 37181838#2 37181838#1 37181838#0 4807753#2 4807753#1 4807753#0 -4807768#0 -4807768#1 -984678891#0 30998721#1 30998721#0 269563635#1 383764185 -4811548#0 -23195846 -23195847 -4807766 4807746#1 4807746#2 4807746#3 4807746#4 4807746#5 267047499#2 894722993 265103077#1 4807758#0 4807758#1 4807758#2 4807758#3 464511675 -23312956#0 -23312956#1 -23312956#2"/>
    </person>
    <person id="ped4" type="ped_pedestrian" depart="6.85">
        <walk edges="23032828#2 364977457#2 364977457#3 364977457#4 364977457#5 -88336154 -88336843 23093003#2 23093003#1 692610326#4 692610326#5 692610322#3 692610322#2 692610322#1 692610313#1 692610313#0 23032788#1 23032788#2 23032788#3 168355064#0 168355064#1 168355059#0 -168355059#0"/>
    </person>
    <person id="ped5" type="ped_pedestrian" depart="8.56">
        <walk edges="-586684994#1 -23094757 692610296#2 692610296#1 692610296#0 264335984 264335982 180664954#0 180664954#1 615394221 180664955 180664956 387401264 88457771 26738118 24608421#3 24608421#2 24608421#1 24608421#0 694075476#1 694075476#0 379541854#5 379541854#4 26738161 84913183#3 84913183#2 84913183#1 84913183#0 24008847#0"/>
    </person>
    <person id="ped6" type="ped_pedestrian" depart="10.28">
        <walk edges="-16361899#7 16361899#6 43709975 201507896 449241023#0 449241023#1 449241019 169127798 1036411468 169127863 449240478 449240479#0 449240483#0 449240483#1 449240482#1 449240482#2 35822596#0 562273432#0 562273432#1 562273432#2 562273432#3 562273432#4 694012887#1 694012887#0 694012884#2 694012884#1 694012884#0 694012877#1 694012877#0 694012876#0 694012876#1 -23312956#2 -23312956#1 -4811395#1 -4811395#0 23312960#0 15021494#8 23312960#2 24146206 31155466#1 31155466#0 23184015#0 23184015#1 327930728 4807770#0 4807770#1 24620747#0 24620747#1 24620747#2 23174408#1 31626956#8 31626956#7 31626956#6 31626956#5 31626956#4 31626956#3 31626956#2 31626956#1 31626956#0 273169661#1 692561004 45733021 -837521439 -387498726 -180664956 180664955 615394221 180664954#1 180664954#0 264335982 -264335984 692610296#0 -23093187#1 -23093187#0 23093189 23093190#0 23093190#1 23093190#2 286421142 -23095743 -911891325 -692610315#0 -911891322 -692610318#1 692610326#0 692610326#1 692610326#2 692610326#3 692610326#4 692610326#5 692610326#6 692610326#7 692610321 692610319 692610320 56255598#0 -167641328 -56255590#1 -56255590#0 -399038514#2 -53564792#0 -53564794 53564793#2 -53564616#0"/>
    </person>
    <person id="ped7" type="ped_pedestrian" depart="11.99">
        <walk edges="32623956 56256170#0 30760065#3 30760065#2 30760065#1 30760067#0 -25497562#0 -25497562#1 -387401253#0 -387401253#1 693946705 693946714#2 693946709#1 693946711#1" busStop="1219607572"/> <!-- Merkel'sches Bad -->
        <walk edges="694075475#0 -290577631 169218510#0 169218510#1 -17097227 24608401 345744159#0 345744159#1 345744159#2 24608403 970380575#1 24620653#1 379541854#5 694075476#0 694075476#1 24608421#0 24608421#1 24608421#2 24608421#3 26738118 -837521439 -387498726 -180664956 180664955 615394221 180664954#1 180664954#0 264335982 264335984"/>
    </person>
    <person id="ped8" type="ped_pedestrian" depart="13.70">
        <walk edges="-59054089#1 1035471363 23471091#0 23471091#1 1035471366 568701484 -23138542#2 -23138542#1 -23138542#0 -58761541#1 -58761541#0 23316379 409834754 1163119439 1163119440 23316373 159822905#0 159822905#1 23316374 31424596#0 273169655#1 -4807746#5 -4807746#4 -4807746#3 -4807746#2 -4807746#1 4807766 23195847 23195846 4811548#0 4811548#1 30998720 23195845#0 23195845#1 31626958 23184007#0 4807773#2 4807773#1 4807773#0 31626956#7 31626956#6 31626956#5 31626956#4 31626956#3 31626956#2 31626956#1 31626956#0 273169661#1 692561004 45733021 -837521439 -387498726 -180664956 180664955 615394221 180664954#1 180664954#0 264335982 -264335984 692610296#0 -23093187#1 -23093187#0 23093189 23093190#0 23093190#1 23093190#2 286421142 -23095743 -911891325 -692610315#0 -911891322 911891304 23093004#0 303259050#2 303259050#1 303259050#0"/>
    </person>
    <person id="ped9" type="ped_pedestrian" depart="15.41">
        <walk edges="4811294 23184012 -24510734#1 -24510734#0 -23184009#3 -23184009#2 693946723#1 273169661#1 692561004 45733021 -837521439 -387498726 -387401263 -586684993#2 -586684993#1 -586684993#0 -111177309#4 -111177309#3 -111177309#2 -111177309#1 -111177309#0 586684992#1 168357255#0 364977457#1 -23032828#2 -23032828#1 -23032828#0 23032792#3 23032792#2 1082829461 -1082829461"/>
    </person>
    <person id="ped10" type="ped_pedestrian" depart="17.13">
        <walk edges="4807778#3 4807778#4 4807778#5 91062160 291431512 4807777 553323249#2 553323249#1 553323249#0 -553323250 23184029 47241806#3 47241806#2 47241806#1 47241806#0 23184031 23184030#1 23184030#0 10419530#2 10419530#3 10419530#4 10419530#5 327930725 4807770#0 23386391 23313213 263704867#1 263704867#0 263704866 4807746#3 4807746#2 4807746#1 -4807766 -23195847 23195846 4811548#0 383764185 269563635#1 30998721#0 30998721#1 -984678891#0 -4807768#1 -4807768#0 4807753#0 4807753#1 4807753#2 37181838#0 37181838#1 37181838#2 37181838#3 -37181838#4 -37181839#0 -37181839#1 -378237365#0 378237374#0"/>
    </person>
    <person id="ped11" type="ped_pedestrian" depart="18.84">
        <walk edges="133527470 694012888#3 562273432#1 562273432#2 562273432#3 562273432#4 694012887#1 694012887#0 694012884#2 694012884#1 694012884#0 694012877#1 694012877#0 694012876#0 694012876#1 -23312956#2 -23312956#1 -23312956#0 464511675 4807758#3 4807758#2 4807758#1 4807758#0 265103077#1 265103077#0 42229185 265099556 259423427#0 259423427#1 259423428#0 692621717 692621716 31626870#0 31626870#1 31626872 969575764#0 259814636 31626895 181276117 -442274147 -378237362#5 -378237362#4 -378237362#3 -378237362#2 -378237362#0 -378237360 -135078202#1 -378237361 -692537992 -692537991#0 -378237359#0"/>
    </person>
    <person id="ped12" type="ped_pedestrian" depart="20.55">
        <walk edges="902302656 902302659 902302660#1 902302660#2 902302661 902302662 902302664 902302665 316335639#1 223315211#0 223315211#1 -90397461#1 -90397461#0 316335634 23316384 23316383 259814832 24620633 458503370 265103077#1 894722993 267047499#2 4807746#5 4807746#4 4807746#3 4807746#2 4807746#1 -4807766 -23195847 23195846 4811548#0 4811548#1 30998720 23195845#0 23195845#1 23195845#2 23195845#3 23195845#4 23195845#5 23195845#6 823051185#1 111177316 823051191 234015060 234015059#0 234015059#1 332292230 156195256 303780090#4 303780090#3 303780090#2 303780090#1 303780090#0 303780051 303780063 303780047 303780071#1" busStop="263337141"/> <!-- Esslingen (Neckar) -->
        <ride busStop="3222963807" lines="S1:1" intended="pt_train_S1:1.1" depart="1358.00"/> <!-- Esslingen-Mettingen -->
        <walk edges="-448974997#1 -448974997#0 -30010699#1 125007815#0 125007811"/>
    </person>
    <person id="ped13" type="ped_pedestrian" depart="22.26">
        <walk edges="-23313215#5 4807777 291431512 91062160 4807778#5 4807778#4 4807778#3 4807778#2 4807778#1 4807778#0 366030059#4 366030061 366030062#1 -23439978#3 -23439978#5"/>
    </person>
    <person id="ped14" type="ped_pedestrian" depart="23.98">
        <walk edges="607151533 607151534 -23093002 -891795540 111177309#3 111177309#4 -586684993#0 -586684993#1 -586684993#2 387401263 387401264 88457771 24608383 202572141#1 24608388 156198381 692561007 378237415#0 378237415#1 378237415#2 378237415#3 303780090#0 303780090#1 303780090#2 303780090#3"/>
    </person>
    <person id="ped16" type="ped_pedestrian" depart="27.40">
        <walk edges="259423427#1 259423428#0 259423428#1 23316363#3 23316363#2 23316363#1 23316363#0 30998723 23316368 23316370 23316371 269563635#0 269563635#1 23316369 30998720 23195845#0 23195845#1 23195845#2 23195845#3 23195845#4 23195845#5 23195845#6 823051185#1 111177316 823051191 234015060 234015059#0 234015059#1 332292230 156195256 303780090#4 303780090#3 303780090#2 303780090#1 303780090#0 303780051 303780063 303780047 303780071#1" busStop="263337141"/> <!-- Esslingen (Neckar) -->
        <ride busStop="3222963807" lines="S1:1" intended="pt_train_S1:1.0" depart="758.00"/> <!-- Esslingen-Mettingen -->
        <walk edges="-448974997#1 -448974997#0 -30010699#1 -30010699#0 -448974996#1 -448974996#0 -23163761 915941785 915941786"/>
    </person>
    <person id="ped17" type="ped_pedestrian" depart="29.11">
        <walk edges="17059198 316335633 259814832 24620633 458503370 265103077#1 894722993 267047499#2 4807746#5 4807746#4 4807746#3 4807746#2 4807746#1 -4807766 -23195847 23195846 4811548#0 4811548#1 30998720 23195845#0 23195845#1 23195845#2 23195845#3 23195845#4 23195845#5 23195845#6 823051185#1 111177316 823051191 234015060 234015059#0 234015059#1 332292230 332193966#0 234015061#1 268558821#1 268558821#0"/>
    </person>
    <person id="ped19" type="ped_pedestrian" depart="32.54">
        <walk edges="640275105 -168357255#5 -168357255#4 -168357255#3 -168357255#2 -168357255#1 -168357255#0 911891313#0 -911891315 -911891317#1 -911891317#0 911891318#1 692610315#2 911891304 23093004#0 23093004#1 23093004#2 23093004#3 23093004#4 303259036#7 303259036#6 303259036#5 303259036#4 303259036#3 303259036#2 303259036#1 303259032"/>
    </person>
    <person id="ped21" type="ped_pedestrian" depart="35.96">
        <walk edges="-607937852 287272584#5 287272584#6 -23032837#0 -23032837#1 -586684993#0 591241988#1 591241988#0 692610300#1 692610300#2 911891302#1 692610285#0 692610285#1 23093187#1 345736587#1 22910600 1035471372"/>
    </person>
    <person id="ped23" type="ped_pedestrian" depart="39.39">
        <walk edges="-23471088 -58761541#1 -58761541#0 23316379 409834754 1163119439 1163119440 23316373 159822905#0 159822905#1 23316374 265099556 -42229185 265103077#0 265103077#1 4807758#0 439857024#4 439857024#3 464511676 23184015#0 23184015#1 327930724 10419530#5 10419530#4 10419530#3 10419530#2 23184030#0 23184030#1 23184031 47241806#0 47241806#1 47241806#2 47241806#3 41390564 41390578 -95158558#2 95158558#1 -95158558#0"/>
    </person>
    <person id="ped24" type="ped_pedestrian" depart="41.10">
        <walk edges="316335638 -90397461#0 316335634 23316384 23316383 259814832 24620633 458503370 265103077#1 894722993 267047499#2 4807746#5 4807746#4 4807746#3 4807746#2 4807746#1 -4807766 -23195847 23195846 4811548#0 4811548#1 30998720 23195845#0 23195845#1 23195845#2 23195845#3 23195845#4 23195845#5 23195845#6 823051185#1 111177316 823051191 234015060 234015059#0 234015059#1 332292230 332193966#0 234015061#1 384972991#1" busStop="2739052081"/> <!-- Esslingen (N) ZOB -->
        <ride busStop="3933810892" lines="120:0" intended="pt_bus_120:0.0" depart="1061.00"/> <!-- Weilstraße -->
        <walk edges="345736587#0 345736587#1 22910600 -23094757 -586684994#1 -586684994#0 23093006 -23093183 23093007 -113684008#2 168355068 23032788#2 23032788#3 168355064#0 168355064#1"/>
    </person>
    <person id="ped25" type="ped_pedestrian" depart="42.81">
        <walk edges="169096483#2 -169096483#1 -23094823 -23032790#1 692610326#8 692610326#7 692610326#6 692610326#5 692610326#4 692610326#3 692610326#2 692610326#1 692610326#0 -692610318#1 -911891322 -692610315#0 -911891325 -23095743 -286421142 23093190#2 23093190#1 23093190#0 -23093189 -23093187#0 -23093187#1 692610296#0 264335984 264335982 180664954#0 180664954#1 615394221 180664955 180664956 387401264 88457771 45733021 692561004 273169661#1 31626956#0 31626956#1 31626956#2 31626956#3 31626956#4 31626956#5 31626956#6 31626956#7 31626956#8 23174408#1 24620747#2 47241810 316297815 47241807 23176410#1 23176410#2 4811503 38360674#0 38360675#0 38360675#1 128873578 128873577#1 128873577#0 635962177 10419530#1 23184030#0 23184030#1 23184031 47241806#0 47241806#1 47241806#2 47241806#3 23184029 -553323250 553323249#0 -553323249#1"/>
    </person>
    <person id="ped26" type="ped_pedestrian" depart="44.53">
        <walk edges="-911891325 -23095743 -286421142 23093190#2 23093190#1 23093190#0 -23093189 -23093187#0 -23093187#1 692610296#0 264335984 264335982 180664954#0 180664954#1 615394221 180664955 180664956 387401264 88457771 26738118 24608421#3 24608421#2 24608421#1 24608421#0 694075476#1 694075476#0 379541854#5 379541854#4 26738161 84913183#3"/>
    </person>
    <person id="ped27" type="ped_pedestrian" depart="46.24">
        <walk edges="32298004#1 32298004#0 32298012 13622240 403685571 16361899#6 43709975 201507896 449241023#0 449241023#1 449241019 169127798 1036411468 169127863 449240478 449240479#0 449240483#0 449240483#1 449240482#1 449240484 449240485 -23320724#0 -23320724#1 26249190#0 26249190#1 26249190#2 366030056#0 26249175 -54883017#3 -54883017#2 -54883017#1 -54883017#0 -387401253#1 -387401253#0 -25497562#1 -25497562#0 30760067#0 30760065#1 30760065#2 30760066#0 30760068#0 30760068#1"/>
    </person>
    <person id="ped28" type="ped_pedestrian" depart="47.95">
        <walk edges="-399038514#0 399038514#1 399038514#2 56255590#0 56255590#1 167641328 56255598#0 -387498727#0 692610322#0 692610313#1 692610313#0 -23032787#0 -23032787#1 -23032787#2 -23032787#3 -23032787#4 -23032787#5 -23032787#6 -23032787#7 -23032787#8 -911891303#0 -911891303#1 -911891303#2 -23093005#0 -23093005#1 -23093005#2 -169097417#0 -169097417#1 -169097417#2 -586684994#0 -586684994#1 -23094757 1035471372 180664958#2 180664958#1 345736614#2 11335855#0 -393019011#2 393019011#1"/>
    </person>
    <person id="ped29" type="ped_pedestrian" depart="49.66">
        <walk edges="-38027017 38027017" busStop="-2626499005"/> <!-- Charlottenplatz -->
        <walk edges="23320721 54883366#5 54883366#4 54883366#3 54883366#2 54883366#1 54883366#0 -247063363#0 -247063363#1 -24621681#0 -24621681#1 17096975#2"/>
    </person>
    <person id="ped30" type="ped_pedestrian" depart="51.38">
        <walk edges="957481220#1 693946722#1" busStop="-1254192526"/> <!-- Pliensauturm -->
        <ride busStop="2626499005" lines="114:0" intended="pt_bus_114:0.0" depart="374.00"/> <!-- Charlottenplatz -->
        <walk edges="32133766 -32133767#1 32133770 32133771#2"/>
    </person>
    <person id="ped31" type="ped_pedestrian" depart="53.09">
        <walk edges="282981263 -282981270#1 -282981270#0 -282981260#0 282981269 282981261 282981262 282981267 30769180 -881678625#8 -881678625#7 -881678625#6 -881678625#5 -881678625#4 -881678625#3 -881678625#2 881678625#1 881678625#0 5108622#3 404790255#1 404790255#0 404790258#2 404790256#1 404790256#0 366030059#2"/>
    </person>
    <person id="ped32" type="ped_pedestrian" depart="54.80">
        <walk edges="586684993#2 387401263 387401264 88457771 45733021 692561004 273169661#1 31626956#0 31626956#1 31626956#2 31626956#3 31626956#4 31626956#5 31626956#6 31626956#7 31626956#8 23174408#1 24620747#2 24620747#1 24620747#0 4807770#1 4807770#0 327930728 23184015#1 23184015#0 31155466#0 31155466#1 24146206 -23312960#2 -23312960#1 -23312960#0 -4811395#0 -4811395#1 -23312956#1 -23312956#2 694012876#1 694012876#0 694012877#0 694012877#1 694012884#0 694012884#1 694012884#2 694012887#0 694012887#1 562273432#4 562273432#3 562273432#2 562273432#1 562273432#0 35822596#0 449240482#2 449240482#1 449240483#1 449240483#0"/>
    </person>
    <person id="ped33" type="ped_pedestrian" depart="56.51">
        <walk edges="-611781711 611781711" busStop="1219607437"/> <!-- Charlottenplatz -->
        <walk edges="-32133766 32133766" busStop="-2626499005"/> <!-- Charlottenplatz -->
        <walk edges="23320721 54883366#5 54883366#4 54883366#3 54883366#2 54883017#3 54883017#2 54883017#1 54883017#0 693946705 693946714#2 693946709#1 693946711#1" busStop="1219607572"/> <!-- Merkel'sches Bad -->
        <walk edges="694075475#0 -290577631 169218510#0 169218510#1 -17097227 24608401 345744159#0 345744159#1 345744159#2 24608403 970380575#1 24620653#1 379541854#5 694075476#0 694075476#1 24608421#0 24608421#1 24608421#2 24608421#3 26738118 -837521439 -387498726 -180664956 180664955 615394221 180664954#1 180664954#0 264335982 -264335984 692610296#0 345736587#1 22910600 -23094757 -586684994#1 -586684994#0 23093006 -23093183 23093007 -113684008#2 -113684008#1 168355065 -168355065"/>
    </person>
    <person id="ped35" type="ped_pedestrian" depart="59.94">
        <walk edges="-561591786#0 53564794 53564792#0 399038514#2 56255590#0 56255590#1 167641328 56255598#0 692610320 -692610319 692610321 692610326#7 692610326#6 692610326#5 692610326#4 692610326#3 692610326#2 692610326#1 692610326#0 -692610318#1 -911891322 -692610315#0 -911891325 -23095743 -286421142 23093190#2 23093190#1 23093190#0 -23093189 -23093187#0 -23093187#1 692610296#0 264335984 264335982 180664954#0 180664954#1 615394221 180664955 180664956 387401264 88457771 45733021 692561004 273169661#1 31626956#0 31626956#1 31626956#2 31626956#3 31626956#4 31626956#5 31626956#6 31626956#7 31626956#8 23174408#1 24620747#2 24620747#1 24620747#0 4807770#1 4807770#0 327930728 23184015#1 23184015#0 464511676 439857024#3 439857024#4 4807758#0 458503370 24620633 259814832 316335633 17059198 224106216 169127821#4 169127821#3 805470435#0 876744790"/>
    </person>
    <person id="ped37" type="ped_pedestrian" depart="63.36">
        <walk edges="332193969#3 268558821#1 234015061#1 332193966#0 332292230 234015059#1 234015059#0 234015060 823051191 111177316 823051185#1 23195845#6 23195845#5 23195845#4 23195845#3 23195845#2 23195845#1 23195845#0 30998720 -4811548#1 -4811548#0 -23195846 23195847 4807766 -4807746#1 -4807746#2 -4807746#3 -4807746#4 -4807746#5 273169655#1 31424596#0 23316374 159822905#1 159822905#0 23316373 1163119440 1163119439 409834754 23316379 24608251#2 199924172 199924174 199924175 24608251#0 199924171 202223881"/>
    </person>
    <person id="ped38" type="ped_pedestrian" depart="65.08">
        <walk edges="751383406#1 751383407 751383408#0 751383408#1 32298002#0 32298002#1 32298002#2 32298002#3 32298012 13622240 403685571 16361899#6 43709975 201507896 449241023#0 449241023#1 449241019 169127798 1036411468 169127863 449240478 449240479#0 449240483#0 449240483#1 449240482#1 449240482#2 35822596#0 562273432#0 562273432#1 562273432#2 562273432#3 562273432#4 694012887#1 694012887#0 694012884#2 694012884#1 694012884#0 694012877#1 694012877#0 694012876#0 694012876#1 -23312956#2 -23312956#1 -4811395#1 -4811395#0 23312960#0 15021494#8 23312960#2 24146206 31155466#1 31155466#0 23184015#0 23184015#1 327930728 4807770#0 4807770#1 24620747#0 24620747#1 24620747#2 23174408#1 31626956#8 31626956#7 31626945#2 31626945#1 31626945#0 23184012"/>
    </person>
    <person id="ped40" type="ped_pedestrian" depart="68.50">
        <walk edges="282981274#2 282981273#1 282981269 282981261 282981262 282981267 30769180 -881678625#9 474485750#0 474485750#1 30760063 30760073#1 30760074 257701400#3 56256170#3 30760065#3 30760065#2 30760065#1 30760067#0 -25497562#0 -25497562#1 -387401253#0 -387401253#1 693946705 693946714#2 693946709#1 693946711#1" busStop="1219607572"/> <!-- Merkel'sches Bad -->
        <walk edges="694075475#0 -290577631 169218510#0 169218510#1 -17097227 24608401 345744159#0 345744159#1 345744159#2 24608403 970380575#1 24620653#1 379541854#5 694075476#0 694075476#1 24608421#0 24608421#1 24608421#2 24608421#3 26738118 -837521439 -387498726 -180664956 180664955 615394221 180664954#1 180664954#0 264335982 -264335984 692610296#0 345736587#1 22910600 -23094757 -586684994#1 -586684994#0 -169097417#2 -169097417#1 -169097417#0 -23093005#2 -23093005#1 -23093005#0 -911891303#2"/>
    </person>
    <person id="ped41" type="ped_pedestrian" depart="70.21">
        <walk edges="303259041#1 -303259041#0 -23093005#1 -23093005#2 -169097417#0 -169097417#1 -169097417#2 -586684994#0 -586684994#1 -23094757 692610296#2 692610296#1 692610296#0 264335984 264335982 180664954#0 180664954#1 615394221 180664955 180664956 387401264 88457771 45733021 692561004 273169661#1 693946723#1"/>
    </person>
    <person id="ped42" type="ped_pedestrian" depart="71.93">
        <walk edges="202223922 -537710741#2 -537710741#3 34395375 34395373 16362002 13861896#1 13861896#0 13861894#2 13861894#1 13861894#0 4811333 224106216 4811327 78043851 23316378 409834753 1163119439 409834754 23316379 4811366 -58761541#0"/>
    </person>
    <person id="ped43" type="ped_pedestrian" depart="73.64">
        <walk edges="984678891#1 30998720 -4811548#1 -4811548#0 -23195846 -23195847 -4807766 4807746#1 4807746#2 4807746#3 4807746#4 4807746#5 267047499#2 894722993 265103077#1 458503370 24620633 259814832 316335633 17059198 224106216 4811333 13861894#0 13861894#1 13861894#2 13861896#0 13861896#1 78043854#0 78043854#1 78043854#2 24608291 24437132#0"/>
    </person>
    <person id="ped44" type="ped_pedestrian" depart="75.35">
        <walk edges="-23313209#1 29139334 23313215#5 4807777 291431512 91062160 4807780#1 772978722 772978723#1 772978723#0 98502156#1 169224407#1 23320724#0 449240485 449240484 449240482#1 449240483#1 449240483#0 449240479#0 449240478 169127863 1036411468 169127798 449241019 449241023#1 449241023#0 201507896 43709975 16361899#6 403685571 -13622240 9514888#5 -9514888#4 202223915 -202223915"/>
    </person>
    <person id="ped45" type="ped_pedestrian" depart="77.06">
        <walk edges="-250004209 36128959#2 17281375#0 -167641323 56255598#0 692610320 -692610319 692610321 692610326#7 692610326#6 692610326#5 692610326#4 692610326#3 692610326#2 692610326#1 692610326#0 -692610318#1 -911891322 -692610315#0 -911891325 -23095743 -286421142 23093190#2 23093190#1 23093190#0 -23093189 -23093187#0 -23093187#1 692610296#0 264335984 264335982 180664954#0 180664954#1 615394221 180664955 180664956 387401264 88457771 45733021 692561004 273169661#1 693946723#1 23184009#2 23184009#3 23184009#4 31626948 31626945#1"/>
    </person>
    <person id="ped46" type="ped_pedestrian" depart="78.78">
        <walk edges="47082073 4807746#2 4807746#1 -4807766 -23195847 23195846 4811548#0 4811548#1 30998720 23195845#0 23195845#1 23195845#2 23195845#3 23195845#4 23195845#5 23195845#6 823051185#1 111177316 823051191 234015060 234015059#0 234015059#1 332292230 332193966#0 234015061#1 268558823#1" busStop="3566577206"/> <!-- Esslingen (N) ZOB -->
        <ride busStop="3933810892" lines="119:0" intended="pt_bus_119:0.1" depart="731.00"/> <!-- Weilstraße -->
        <walk edges="345736587#0 -23093187#1 -23093187#0 23093189 23093190#0 23093190#1 23093190#2 286421142 -23095743 -911891325 23032829#0"/>
    </person>
    <person id="ped47" type="ped_pedestrian" depart="80.49">
        <walk edges="-23093006 586684994#0 -586684994#1 -23094757 692610296#2 692610296#1 692610296#0 264335984 264335982 180664954#0 180664954#1 615394221 180664955 180664956"/>
    </person>
    <person id="ped48" type="ped_pedestrian" depart="82.20">
        <walk edges="973347367 692561004 273169661#1 693946723#1 693946723#0 693946722#1" busStop="-1254192526"/> <!-- Pliensauturm -->
        <ride busStop="1219607572" lines="114:0" intended="pt_bus_114:0.0" depart="374.00"/> <!-- Merkel'sches Bad -->
        <walk edges="693946711#1 693946709#1 693946714#2 693946714#1 -17096975#2 -24621681#1 -24621681#0 -247063363#1 247063363#0"/>
    </person>
    <person id="ped49" type="ped_pedestrian" depart="83.91">
        <walk edges="911891326#2 911891325 23095743 -286421142 23093190#2 23093190#1 23093190#0 -23093189 -23093187#0 -23093187#1 692610296#0 264335984 264335982 180664954#0 180664954#1 615394221 180664955 180664956 387401264 88457771 45733021 692561004 273169661#1 31626956#0 31626956#1 31626956#2 31626956#3 31626956#4 31626956#5 31626956#6 31626956#7 31626956#8 23174408#1 24620747#2 47241810 316297815 47241807 23176410#1 23176410#2 4811503 38360674#0 38360675#0 23184004 38360677#4 38360677#5 38360677#6 38360677#7 156196384#2 156196384#1 156196384#0 156196391#0 156196391#1 156196391#2 639911410 156196389#0 156196389#1 639911409"/>
    </person>
    <person id="ped50" type="ped_pedestrian" depart="85.63">
        <walk edges="-1124421114 393019011#2 11335855#0 345736614#2 180664958#1 180664958#2 1035471372 -23094757 169097416 23093189 23093190#0 23093190#1 23093190#2 286421142 -23095743 -911891325 -692610315#0 -911891322 -692610318#1 692610326#0 692610324#1 386851193#1"/>
    </person>
    <person id="ped51" type="ped_pedestrian" depart="87.34">
        <walk edges="364977460 364977456#0 364977457#3 364977457#2 364977457#1 -168357255#0 -586684992#1 111177309#0 111177309#1 111177309#2 111177309#3 111177309#4 -586684993#0 -586684993#1 -586684993#2 387401263 387401264 88457771 45733021 692561004 273169661#1 31626956#0 31626956#1 31626956#2 31626956#3 31626956#4 31626956#5 31626956#6 31626956#7 4807773#0 4807773#1 4807773#2 23184007#0 31626958 23195845#1 23195845#0 30998720 23316369 269563635#1 269563635#0 23316371 23316370 23316368 30998723 23316363#0 23316363#1 23316363#2 31626876 31626880 31626885 259814636"/>
    </person>
    <person id="ped52" type="ped_pedestrian" depart="89.05">
        <walk edges="-911891325 -23095743 -286421142 23093190#2 23093190#1 23093190#0 -23093189 -23093187#0 -23093187#1 692610296#0 264335984 264335982 180664954#0 180664954#1 615394221 180664955 180664956 387401264 88457771 26738118 24608421#3 24608421#2 24608421#1 24608421#0 694075476#1 694075476#0 379541854#5 24620653#1 970380575#1 24608403 345744159#2 345744159#1 345744159#0 24608401 -17097227 169218510#1 169218510#0 -290577631 694075475#0" busStop="1219607572"/> <!-- Merkel'sches Bad -->
        <ride busStop="2626499005" lines="114:0" intended="pt_bus_114:0.2" depart="1658.00"/> <!-- Charlottenplatz -->
        <walk edges="32133766 -32133767#1 32133770 -32133771#1 -32133771#0 881678625#5 -881678625#6 32138164#1 32138164#2"/>
    </person>
    <person id="ped53" type="ped_pedestrian" depart="90.76">
        <walk edges="-25497562#1 -387401253#0 -387401253#1 693946705 693946714#2 693946709#1 693946711#1" busStop="1219607572"/> <!-- Merkel'sches Bad -->
        <walk edges="694075475#0 -290577631 169218510#0 169218510#1 -17097227 24608401 345744159#0 345744159#1 345744159#2 24608403 970380575#1 24620653#1 379541854#5 694075476#0 694075476#1 24608421#0 24608421#1 24608421#2 24608421#3 26738118 -837521439 -387498726 -387401263 -586684993#2 -586684993#1 -586684993#0 -111177309#4 -111177309#3 -111177309#2 911891305#0 911891309#3 911891309#2 23094751#3"/>
    </person>
    <person id="ped54" type="ped_pedestrian" depart="92.48">
        <walk edges="23176410#1 47241807 47241808 24620748 24620747#0 4807770#1 4807770#0 327930728 23184015#1 23184015#0 464511676 439857024#3 439857024#4 4807758#0 265103077#1 894722993"/>
    </person>
    <person id="ped55" type="ped_pedestrian" depart="94.19">
        <walk edges="692610303#4 692610303#2 692610300#2 692610300#1 692610300#0 911891306#2 911891306#1 911891309#3 911891309#2 911891309#1 -911891313#1 -911891313#0"/>
    </person>
    <person id="ped56" type="ped_pedestrian" depart="95.90">