<?xml version="1.0" encoding="UTF-8"?>

<!-- generated on 2023-05-01 16:58:00.021850 by osmWebWizard.py v1_16_0+0000-94ec4c6cd72
<configuration>
    <begin value="0"/>
    <end value="3600"/>
    <fringe-factor value="5"/>
    <fringe-start-attributes value="departSpeed=&quot;max&quot;"/>
    <insertion-density value="4.0"/>
    <min-distance.fringe value="10.0"/>
    <min-distance value="600.0"/>
    <net-file value="C:\Users\sader\Sumo\2023-05-01-16-57-47\osm.net.xml.gz"/>
    <remove-loops value="True"/>
    <route-file value="C:\Users\sader\Sumo\2023-05-01-16-57-47\osm.bus.rou.xml"/>
    <trip-attributes value="departLane=&quot;best&quot;"/>
    <output-trip-file value="C:\Users\sader\Sumo\2023-05-01-16-57-47\osm.bus.trips.xml"/>
    <prefix value="bus"/>
    <validate value="True"/>
    <vclass value="bus"/>
    <vehicle-class value="bus"/>
</configuration>
-->

<!-- generated on 2023-05-01 16:57:59 by Eclipse SUMO duarouter Version 1.16.0
<configuration xmlns:xsi="http://www.w3.org/2001/XMLSchema-instance" xsi:noNamespaceSchemaLocation="http://sumo.dlr.de/xsd/duarouterConfiguration.xsd">

    <input>
        <net-file value="C:\Users\sader\Sumo\2023-05-01-16-57-47\osm.net.xml.gz"/>
        <route-files value="C:\Users\sader\Sumo\2023-05-01-16-57-47\osm.bus.trips.xml"/>
    </input>

    <output>
        <output-file value="C:\Users\sader\Sumo\2023-05-01-16-57-47\osm.bus.trips.xml.tmp"/>
        <alternatives-output value="NUL"/>
        <write-trips value="true"/>
    </output>

    <processing>
        <remove-loops value="true"/>
    </processing>

    <time>
        <begin value="0"/>
        <end value="3600"/>
    </time>

    <report>
        <no-warnings value="true"/>
        <ignore-errors value="true"/>
        <no-step-log value="true"/>
    </report>

</configuration>
-->

<routes xmlns:xsi="http://www.w3.org/2001/XMLSchema-instance" xsi:noNamespaceSchemaLocation="http://sumo.dlr.de/xsd/routes_file.xsd">
    <vType id="bus_bus" vClass="bus"/>
    <trip id="bus0" type="bus_bus" depart="0.00" departLane="best" from="23320720#4" to="135078205"/>
    <trip id="bus1" type="bus_bus" depart="6.06" departLane="best" from="-378237359#4" to="-378237365#0"/>
    <trip id="bus2" type="bus_bus" depart="12.11" departLane="best" from="345736580" to="26249179"/>
    <trip id="bus3" type="bus_bus" depart="18.17" departLane="best" from="5047080#3" to="-23093191#0"/>
    <trip id="bus4" type="bus_bus" depart="24.23" departLane="best" departSpeed="max" from="-9515059#6" to="-159822900#0"/>
    <trip id="bus5" type="bus_bus" depart="30.29" departLane="best" from="273169655#1" to="23032792#4"/>
    <trip id="bus7" type="bus_bus" depart="42.40" departLane="best" from="-23471029" to="23184008"/>
    <trip id="bus8" type="bus_bus" depart="48.46" departLane="best" departSpeed="max" from="-28675674" to="23312971#1"/>
    <trip id="bus9" type="bus_bus" depart="54.52" departLane="best" from="388285825" to="1035471353"/>
    <trip id="bus10" type="bus_bus" depart="60.57" departLane="best" from="-387401261" to="29138343#0"/>
    <trip id="bus11" type="bus_bus" depart="66.63" departLane="best" departSpeed="max" from="-4807774#3" to="26249174#1"/>
    <trip id="bus12" type="bus_bus" depart="72.69" departLane="best" departSpeed="max" from="-23093184" to="-23163774#1"/>
    <trip id="bus13" type="bus_bus" depart="78.75" departLane="best" from="474485753" to="23316367"/>
    <trip id="bus14" type="bus_bus" depart="84.80" departLane="best" from="387498727#1" to="345736604"/>
    <trip id="bus15" type="bus_bus" depart="90.86" departLane="best" from="220150716#0" to="911891321"/>
    <trip id="bus17" type="bus_bus" depart="102.97" departLane="best" from="286421142" to="178668743"/>
    <trip id="bus19" type="bus_bus" depart="115.09" departLane="best" from="-23094750#1" to="4807752#0"/>
    <trip id="bus20" type="bus_bus" depart="121.15" departLane="best" departSpeed="max" from="23320720#0" to="301730468"/>
    <trip id="bus21" type="bus_bus" depart="127.20" departLane="best" departSpeed="max" from="-56255592" to="-37181838#0"/>
    <trip id="bus22" type="bus_bus" depart="133.26" departLane="best" from="37181839#1" to="694012902#0"/>
    <trip id="bus24" type="bus_bus" depart="145.38" departLane="best" from="-23471029" to="345736602"/>
    <trip id="bus25" type="bus_bus" depart="151.43" departLane="best" from="-23439978#2" to="10698326#2"/>
    <trip id="bus26" type="bus_bus" depart="157.49" departLane="best" from="-9514888#2" to="24511285#2"/>
    <trip id="bus28" type="bus_bus" depart="169.60" departLane="best" from="474485735" to="383945640"/>
    <trip id="bus29" type="bus_bus" depart="175.66" departLane="best" from="-29139497#2" to="-16361899#0"/>
    <trip id="bus30" type="bus_bus" depart="181.72" departLane="best" departSpeed="max" from="-448974997#1" to="-474485738"/>
    <trip id="bus31" type="bus_bus" depart="187.78" departLane="best" departSpeed="max" from="-26249174#2" to="8080009"/>
    <trip id="bus33" type="bus_bus" depart="199.89" departLane="best" from="-37181838#2" to="-40817206#0"/>
    <trip id="bus34" type="bus_bus" depart="205.95" departLane="best" from="23032828#1" to="-474485722"/>
    <trip id="bus35" type="bus_bus" depart="212.01" departLane="best" from="-23163762#2" to="-54883366#4"/>
    <trip id="bus36" type="bus_bus" depart="218.06" departLane="best" from="900882210" to="378237359#6"/>
    <trip id="bus37" type="bus_bus" depart="224.12" departLane="best" from="-9515059#3" to="-23032837#0"/>
    <trip id="bus38" type="bus_bus" depart="230.18" departLane="best" departSpeed="max" from="-23093008" to="-180784446#1"/>
    <trip id="bus39" type="bus_bus" depart="236.24" departLane="best" departSpeed="max" from="-23174414" to="-24008850#0"/>
    <trip id="bus40" type="bus_bus" depart="242.29" departLane="best" from="386827126#0" to="16361889#4"/>
    <trip id="bus41" type="bus_bus" depart="248.35" departLane="best" from="-22910620" to="-10698330#2"/>
    <trip id="bus42" type="bus_bus" depart="254.41" departLane="best" from="-9515059#0" to="23093184"/>
    <trip id="bus43" type="bus_bus" depart="260.46" departLane="best" departSpeed="max" from="903593363" to="4807779#0"/>
    <trip id="bus45" type="bus_bus" depart="272.58" departLane="best" from="26249173#0" to="-23094757"/>
    <trip id="bus46" type="bus_bus" depart="278.64" departLane="best" from="37181839#1" to="24608218"/>
    <trip id="bus47" type="bus_bus" depart="284.69" departLane="best" departSpeed="max" from="-23184008" to="169096205"/>
    <trip id="bus48" type="bus_bus" depart="290.75" departLane="best" from="4807839" to="-474485723"/>
    <trip id="bus49" type="bus_bus" depart="296.81" departLane="best" from="-586693673#0" to="4811292"/>
    <trip id="bus50" type="bus_bus" depart="302.87" departLane="best" from="-400653105" to="24510734#0"/>
    <trip id="bus51" type="bus_bus" depart="308.92" departLane="best" from="23220037#1" to="26249170"/>
    <trip id="bus52" type="bus_bus" depart="314.98" departLane="best" from="37181836#1" to="23163762#0"/>
    <trip id="bus53" type="bus_bus" depart="321.04" departLane="best" from="378237362#4" to="-23093187#1"/>
    <trip id="bus55" type="bus_bus" depart="333.15" departLane="best" from="-135078205" to="692610317#1"/>
    <trip id="bus56" type="bus_bus" depart="339.21" departLane="best" from="4811320#0" to="-474485750#1"/>
    <trip id="bus58" type="bus_bus" depart="351.32" departLane="best" from="4811294" to="8576730#3"/>
    <trip id="bus59" type="bus_bus" depart="357.38" departLane="best" from="-23092999#2" to="22910600"/>
    <trip id="bus60" type="bus_bus" depart="363.44" departLane="best" from="-23032789#0" to="37721066#1"/>
    <trip id="bus61" type="bus_bus" depart="369.50" departLane="best" from="37181838#1" to="-23320738#0"/>
    <trip id="bus62" type="bus_bus" depart="375.55" departLane="best" from="-37181838#2" to="4811327"/>
    <trip id="bus63" type="bus_bus" depart="381.61" departLane="best" departSpeed="max" from="-9515059#6" to="-37181839#0"/>
    <trip id="bus65" type="bus_bus" depart="393.73" departLane="best" departSpeed="max" from="9514889#0" to="-25596853"/>
    <trip id="bus66" type="bus_bus" depart="399.78" departLane="best" from="10419531#2" to="23092999#2"/>
    <trip id="bus67" type="bus_bus" depart="405.84" departLane="best" departSpeed="max" from="-23184018" to="383983719"/>
    <trip id="bus68" type="bus_bus" depart="411.90" departLane="best" from="-30010175" to="378237361"/>
    <trip id="bus69" type="bus_bus" depart="417.95" departLane="best" from="-29139497#2" to="600403632#1"/>
    <trip id="bus70" type="bus_bus" depart="424.01" departLane="best" from="4807765#1" to="-23032789#1"/>
    <trip id="bus72" type="bus_bus" depart="436.13" departLane="best" departSpeed="max" from="-26249177#1" to="-23439978#3"/>
    <trip id="bus73" type="bus_bus" depart="442.18" departLane="best" from="694012882" to="23196349"/>
    <trip id="bus74" type="bus_bus" depart="448.24" departLane="best" from="138203610" to="-386831074"/>
    <trip id="bus75" type="bus_bus" depart="454.30" departLane="best" from="387498728#0" to="-324049626"/>
    <trip id="bus76" type="bus_bus" depart="460.36" departLane="best" from="-23093188#1" to="163737798"/>
    <trip id="bus77" type="bus_bus" depart="466.41" departLane="best" departSpeed="max" from="-956612326" to="-191708800"/>
    <trip id="bus78" type="bus_bus" depart="472.47" departLane="best" from="-32197056#0" to="26249176#2"/>
    <trip id="bus79" type="bus_bus" depart="478.53" departLane="best" from="939228251" to="-23163777#0"/>
    <trip id="bus80" type="bus_bus" depart="484.58" departLane="best" departSpeed="max" from="-903117233#2" to="-881678626#0"/>
    <trip id="bus81" type="bus_bus" depart="490.64" departLane="best" from="4807772#0" to="-40817206#5"/>
    <trip id="bus82" type="bus_bus" depart="496.70" departLane="best" departSpeed="max" from="-9515059#6" to="4807753#1"/>
    <trip id="bus83" type="bus_bus" depart="502.76" departLane="best" departSpeed="max" from="-350217703" to="-687182914#0"/>
    <trip id="bus84" type="bus_bus" depart="508.81" departLane="best" from="10698326#2" to="4807779#1"/>
    <trip id="bus85" type="bus_bus" depart="514.87" departLane="best" from="23032786#0" to="191708800"/>
    <trip id="bus86" type="bus_bus" depart="520.93" departLane="best" from="98941405#0" to="4807746#5"/>
    <trip id="bus88" type="bus_bus" depart="533.04" departLane="best" from="-16361889#1" to="-37181840#2"/>
    <trip id="bus91" type="bus_bus" depart="551.22" departLane="best" from="-37181838#3" to="386831073"/>
    <trip id="bus92" type="bus_bus" depart="557.27" departLane="best" from="111177314#1" to="16361889#4"/>
    <trip id="bus94" type="bus_bus" depart="569.39" departLane="best" from="23032787#8" to="138203612#0"/>
    <trip id="bus95" type="bus_bus" depart="575.44" departLane="best" from="900882210" to="23312959#0"/>
    <trip id="bus96" type="bus_bus" depart="581.50" departLane="best" from="224106216" to="-36905364#2"/>
    <trip id="bus97" type="bus_bus" depart="587.56" departLane="best" from="-22910596#0" to="23312962#6"/>
    <trip id="bus98" type="bus_bus" depart="593.62" departLane="best" from="-169224407#1" to="4807772#2"/>
    <trip id="bus99" type="bus_bus" depart="599.67" departLane="best" departSpeed="max" from="-23032845#2" to="-31626938#2"/>
    <trip id="bus100" type="bus_bus" depart="605.73" departLane="best" from="23184022#2" to="26249177#1"/>
    <trip id="bus101" type="bus_bus" depart="611.79" departLane="best" from="30998716#0" to="-23313215#5"/>
    <trip id="bus104" type="bus_bus" depart="629.96" departLane="best" from="-9515059#2" to="23312962#5"/>
    <trip id="bus105" type="bus_bus" depart="636.02" departLane="best" from="182055214" to="694012899#0"/>
    <trip id="bus106" type="bus_bus" depart="642.07" departLane="best" from="-26249172#1" to="31626948"/>
    <trip id="bus107" type="bus_bus" depart="648.13" departLane="best" from="459231516" to="37181838#0"/>
    <trip id="bus108" type="bus_bus" depart="654.19" departLane="best" departSpeed="max" from="-23032792#4" to="-180784446#0"/>
    <trip id="bus109" type="bus_bus" depart="660.25" departLane="best" from="-9515059#5" to="956612326"/>
    <trip id="bus110" type="bus_bus" depart="666.30" departLane="best" departSpeed="max" from="-23032792#4" to="-37181840#0"/>
    <trip id="bus111" type="bus_bus" depart="672.36" departLane="best" from="-37181838#3" to="694012896"/>
    <trip id="bus112" type="bus_bus" depart="678.42" departLane="best" departSpeed="max" from="-56255592" to="-264621638"/>
    <trip id="bus113" type="bus_bus" depart="684.48" departLane="best" departSpeed="max" from="448974998" to="30010175"/>
    <trip id="bus115" type="bus_bus" depart="696.59" departLane="best" departSpeed="max" from="403685569#0" to="5108622#1"/>
    <trip id="bus117" type="bus_bus" depart="708.71" departLane="best" from="-23196349" to="-23312971#2"/>
    <trip id="bus118" type="bus_bus" depart="714.76" departLane="best" from="-23163774#1" to="23184020#2"/>
    <trip id="bus119" type="bus_bus" depart="720.82" departLane="best" from="378237356" to="-23320720#1"/>
    <trip id="bus120" type="bus_bus" depart="726.88" departLane="best" from="-30010699#0" to="-366030056#2"/>
    <trip id="bus121" type="bus_bus" depart="732.93" departLane="best" from="23313215#5" to="-474485723"/>
    <trip id="bus122" type="bus_bus" depart="738.99" departLane="best" from="-16361899#0" to="600403632#1"/>
    <trip id="bus123" type="bus_bus" depart="745.05" departLane="best" from="474485750#0" to="-23094757"/>
    <trip id="bus124" type="bus_bus" depart="751.11" departLane="best" departSpeed="max" from="-956612326" to="-4807751#1"/>
    <trip id="bus125" type="bus_bus" depart="757.16" departLane="best" departSpeed="max" from="23320720#0" to="-474485721"/>
    <trip id="bus126" type="bus_bus" depart="763.22" departLane="best" from="345736604" to="23184018"/>
    <trip id="bus127" type="bus_bus" depart="769.28" departLane="best" from="23032828#0" to="488705428#2"/>
    <trip id="bus128" type="bus_bus" depart="775.34" departLane="best" from="-54883018#3" to="23184008"/>
    <trip id="bus130" type="bus_bus" depart="787.45" departLane="best" from="-442274130" to="-553323249#0"/>
    <trip id="bus131" type="bus_bus" depart="793.51" departLane="best" departSpeed="max" from="537710741#0" to="-37181838#1"/>
    <trip id="bus132" type="bus_bus" depart="799.56" departLane="best" departSpeed="max" from="-350217703" to="-23184017"/>
    <trip id="bus133" type="bus_bus" depart="805.62" departLane="best" from="378237373#1" to="5047080#1"/>
    <trip id="bus135" type="bus_bus" depart="817.74" departLane="best" from="23320720#3" to="692610318#1"/>
    <trip id="bus136" type="bus_bus" depart="823.79" departLane="best" from="4807777" to="911970185"/>
    <trip id="bus137" type="bus_bus" depart="829.85" departLane="best" from="39008607" to="4811548#1"/>
    <trip id="bus138" type="bus_bus" depart="835.91" departLane="best" from="-16361889#0" to="346002978"/>
    <trip id="bus139" type="bus_bus" depart="841.97" departLane="best" from="4807759#1" to="693946729#1"/>
    <trip id="bus140" type="bus_bus" depart="848.02" departLane="best" from="39008607" to="-474485729"/>
    <trip id="bus142" type="bus_bus" depart="860.14" departLane="best" departSpeed="max" from="-28675674" to="442274134"/>
    <trip id="bus143" type="bus_bus" depart="866.20" departLane="best" from="1157387453" to="-537710741#5"/>
    <trip id="bus144" type="bus_bus" depart="872.25" departLane="best" from="-159698915#1" to="-341509728"/>
    <trip id="bus145" type="bus_bus" depart="878.31" departLane="best" from="-4807751#2" to="4807782#2"/>
    <trip id="bus146" type="bus_bus" depart="884.37" departLane="best" from="661600433#0" to="-4807753#2"/>
    <trip id="bus147" type="bus_bus" depart="890.42" departLane="best" from="23320724#0" to="124929507#0"/>
    <trip id="bus148" type="bus_bus" depart="896.48" departLane="best" from="-139468854" to="23094756#0"/>
    <trip id="bus149" type="bus_bus" depart="902.54" departLane="best" departSpeed="max" from="88457772#0" to="-474485729"/>
    <trip id="bus150" type="bus_bus" depart="908.60" departLane="best" departSpeed="max" from="-23174414" to="168355066#2"/>
    <trip id="bus151" type="bus_bus" depart="914.65" departLane="best" from="-31787956" to="-553323249#2"/>
    <trip id="bus152" type="bus_bus" depart="920.71" departLane="best" departSpeed="max" from="-23195846" to="23032845#2"/>
    <trip id="bus153" type="bus_bus" depart="926.77" departLane="best" from="-692537992" to="23312956#2"/>
    <trip id="bus154" type="bus_bus" depart="932.83" departLane="best" from="-366030054#0" to="303259049"/>
    <trip id="bus155" type="bus_bus" depart="938.88" departLane="best" from="10230452#4" to="692537992"/>
    <trip id="bus156" type="bus_bus" depart="944.94" departLane="best" from="-345736605" to="26249174#2"/>
    <trip id="bus157" type="bus_bus" depart="951.00" departLane="best" from="-54883366#5" to="23032788#3"/>
    <trip id="bus158" type="bus_bus" depart="957.05" departLane="best" from="24447671" to="-823051190"/>
    <trip id="bus159" type="bus_bus" depart="963.11" departLane="best" departSpeed="max" from="-448974997#1" to="4807766"/>
    <trip id="bus160" type="bus_bus" depart="969.17" departLane="best" from="30998717#0" to="-5108622#3"/>
    <trip id="bus161" type="bus_bus" depart="975.23" departLane="best" departSpeed="max" from="-903117233#2" to="-4811453#4"/>
    <trip id="bus162" type="bus_bus" depart="981.28" departLane="best" departSpeed="max" from="-23184026" to="16361889#3"/>
    <trip id="bus163" type="bus_bus" depart="987.34" departLane="best" from="694012902#0" to="26249181"/>
    <trip id="bus164" type="bus_bus" depart="993.40" departLane="best" from="40817206#1" to="23184009#4"/>
    <trip id="bus165" type="bus_bus" depart="999.46" departLane="best" departSpeed="max" from="10230452#0" to="23312959#1"/>
    <trip id="bus166" type="bus_bus" depart="1005.51" departLane="best" departSpeed="max" from="23736861#0" to="-182058678#1"/>
    <trip id="bus167" type="bus_bus" depart="1011.57" departLane="best" from="386831075" to="-286421142"/>
    <trip id="bus168" type="bus_bus" depart="1017.63" departLane="best" from="40817206#0" to="37181837#4"/>
    <trip id="bus169" type="bus_bus" depart="1023.69" departLane="best" from="-25596853" to="383983719"/>
    <trip id="bus170" type="bus_bus" depart="1029.74" departLane="best" from="-260983469#3" to="135078202#0"/>
    <trip id="bus171" type="bus_bus" depart="1035.80" departLane="best" from="324049626" to="220150010"/>
    <trip id="bus172" type="bus_bus" depart="1041.86" departLane="best" from="-4807746#2" to="-23032792#2"/>
    <trip id="bus173" type="bus_bus" depart="1047.91" departLane="best" from="-9514888#6" to="-24146204"/>
    <trip id="bus176" type="bus_bus" depart="1066.09" departLane="best" departSpeed="max" from="23736861#0" to="10230452#7"/>
    <trip id="bus177" type="bus_bus" depart="1072.14" departLane="best" departSpeed="max" from="350217704#0" to="38020351"/>
    <trip id="bus178" type="bus_bus" depart="1078.20" departLane="best" from="-23163774#0" to="16361898#1"/>
    <trip id="bus179" type="bus_bus" depart="1084.26" departLane="best" departSpeed="max" from="23736862" to="88457772#4"/>
    <trip id="bus180" type="bus_bus" depart="1090.32" departLane="best" from="345748660#0" to="191708800"/>
    <trip id="bus182" type="bus_bus" depart="1102.43" departLane="best" from="23312962#5" to="881678625#3"/>
    <trip id="bus183" type="bus_bus" depart="1108.49" departLane="best" from="448036757#0" to="23184009#4"/>
    <trip id="bus184" type="bus_bus" depart="1114.54" departLane="best" departSpeed="max" from="537710741#0" to="-366030055#3"/>
    <trip id="bus185" type="bus_bus" depart="1120.60" departLane="best" from="138203612#2" to="-448974998"/>
    <trip id="bus187" type="bus_bus" depart="1132.72" departLane="best" from="37181838#1" to="23093005#0"/>
    <trip id="bus188" type="bus_bus" depart="1138.77" departLane="best" from="-23032829#2" to="-4807778#0"/>
    <trip id="bus191" type="bus_bus" depart="1156.95" departLane="best" from="911970185" to="-23163777#2"/>
    <trip id="bus192" type="bus_bus" depart="1163.00" departLane="best" departSpeed="max" from="-9514888#9" to="37181837#0"/>
    <trip id="bus193" type="bus_bus" depart="1169.06" departLane="best" from="-9515059#4" to="592426952"/>
    <trip id="bus194" type="bus_bus" depart="1175.12" departLane="best" from="-23163762#1" to="28675675#3"/>
    <trip id="bus195" type="bus_bus" depart="1181.18" departLane="best" from="-675674219" to="10230452#8"/>
    <trip id="bus196" type="bus_bus" depart="1187.23" departLane="best" from="-4807752#0" to="881678626#0"/>
    <trip id="bus197" type="bus_bus" depart="1193.29" departLane="best" from="-9515059#1" to="-36905364#0"/>
    <trip id="bus198" type="bus_bus" depart="1199.35" departLane="best" from="-22910608#1" to="23316367"/>
    <trip id="bus199" type="bus_bus" depart="1205.40" departLane="best" departSpeed="max" from="-28675674" to="378237359#6"/>
    <trip id="bus201" type="bus_bus" depart="1217.52" departLane="best" departSpeed="max" from="-4807768#1" to="26249181"/>
    <trip id="bus203" type="bus_bus" depart="1229.63" departLane="best" from="124051723#2" to="-23320724#0"/>
    <trip id="bus204" type="bus_bus" depart="1235.69" departLane="best" from="23312962#5" to="926867315"/>
    <trip id="bus205" type="bus_bus" depart="1241.75" departLane="best" departSpeed="max" from="-16361889#4" to="24608272#1"/>
    <trip id="bus208" type="bus_bus" depart="1259.92" departLane="best" from="-350217704#1" to="-23093183"/>
    <trip id="bus212" type="bus_bus" depart="1284.15" departLane="best" from="138203748#1" to="26205357#1"/>
    <trip id="bus213" type="bus_bus" depart="1290.21" departLane="best" departSpeed="max" from="-23184020#2" to="26249174#2"/>
    <trip id="bus214" type="bus_bus" depart="1296.26" departLane="best" from="23032837#0" to="378237359#3"/>
    <trip id="bus217" type="bus_bus" depart="1314.44" departLane="best" departSpeed="max" from="346002972" to="-23312971#0"/>
    <trip id="bus218" type="bus_bus" depart="1320.49" departLane="best" from="-40817206#2" to="903117233#1"/>
    <trip id="bus219" type="bus_bus" depart="1326.55" departLane="best" from="23163777#2" to="-138203748#1"/>
    <trip id="bus220" type="bus_bus" depart="1332.61" departLane="best" from="-448974996#0" to="26249181"/>
    <trip id="bus221" type="bus_bus" depart="1338.67" departLane="best" from="881678625#8" to="1157387457"/>
    <trip id="bus222" type="bus_bus" depart="1344.72" departLane="best" from="265461443" to="-24008850#0"/>
    <trip id="bus224" type="bus_bus" depart="1356.84" departLane="best" from="-38361910" to="-903593363"/>
    <trip id="bus225" type="bus_bus" depart="1362.89" departLane="best" departSpeed="max" from="10230452#0" to="1035471353"/>
    <trip id="bus226" type="bus_bus" depart="1368.95" departLane="best" from="17096027#0" to="88336156#1"/>
    <trip id="bus227" type="bus_bus" depart="1375.01" departLane="best" from="-4807746#2" to="448974997#0"/>
    <trip id="bus228" type="bus_bus" depart="1381.07" departLane="best" from="-23163762#1" to="894722995"/>
    <trip id="bus229" type="bus_bus" depart="1387.12" departLane="best" departSpeed="max" from="23320720#0" to="-474485742"/>
    <trip id="bus230" type="bus_bus" depart="1393.18" departLane="best" departSpeed="max" from="29036906#0" to="169097416"/>
    <trip id="bus231" type="bus_bus" depart="1399.24" departLane="best" departSpeed="max" from="341509728" to="903117233#2"/>
    <trip id="bus232" type="bus_bus" depart="1405.30" departLane="best" departSpeed="max" from="-37721066#1" to="410089904"/>
    <trip id="bus233" type="bus_bus" depart="1411.35" departLane="best" from="220151070#1" to="22910596#1"/>
    <trip id="bus234" type="bus_bus" depart="1417.41" departLane="best" from="37181840#2" to="4807772#0"/>
    <trip id="bus236" type="bus_bus" depart="1429.52" departLane="best" departSpeed="max" from="124051723#0" to="-23320738#2"/>
    <trip id="bus239" type="bus_bus" depart="1447.70" departLane="best" from="-26249177#0" to="-387498728#2"/>
    <trip id="bus240" type="bus_bus" depart="1453.75" departLane="best" from="26738365#1" to="4807751#0"/>
    <trip id="bus241" type="bus_bus" depart="1459.81" departLane="best" from="-1103106740#1" to="-8812305#1"/>
    <trip id="bus242" type="bus_bus" depart="1465.87" departLane="best" from="-23092999#2" to="32197056#2"/>
    <trip id="bus243" type="bus_bus" depart="1471.93" departLane="best" from="-16361899#0" to="37721066#0"/>
    <trip id="bus244" type="bus_bus" depart="1477.98" departLane="best" from="-16361899#6" to="-387401253#1"/>
    <trip id="bus245" type="bus_bus" depart="1484.04" departLane="best" departSpeed="max" from="-23093184" to="-378237362#3"/>
    <trip id="bus246" type="bus_bus" depart="1490.10" departLane="best" from="265461445#0" to="-54883017#1"/>
    <trip id="bus247" type="bus_bus" depart="1496.16" departLane="best" from="23095743" to="29138345"/>
    <trip id="bus248" type="bus_bus" depart="1502.21" departLane="best" departSpeed="max" from="219110057#0" to="16361899#0"/>
    <trip id="bus249" type="bus_bus" depart="1508.27" departLane="best" from="268558823#0" to="-474485750#0"/>
    <trip id="bus250" type="bus_bus" depart="1514.33" departLane="best" departSpeed="max" from="-350217703" to="-23313216"/>
    <trip id="bus251" type="bus_bus" depart="1520.38" departLane="best" from="25596853" to="-23313215#4"/>
    <trip id="bus252" type="bus_bus" depart="1526.44" departLane="best" from="220150011#1" to="378237359#1"/>
    <trip id="bus253" type="bus_bus" depart="1532.50" departLane="best" from="-24608272#0" to="378237359#0"/>
    <trip id="bus254" type="bus_bus" depart="1538.56" departLane="best" from="159822900#0" to="345736580"/>
    <trip id="bus256" type="bus_bus" depart="1550.67" departLane="best" from="24008852#3" to="109592901"/>
    <trip id="bus257" type="bus_bus" depart="1556.73" departLane="best" from="219110057#3" to="4807746#2"/>
    <trip id="bus258" type="bus_bus" depart="1562.79" departLane="best" from="911891303#2" to="23184020#2"/>
    <trip id="bus260" type="bus_bus" depart="1574.90" departLane="best" from="4807779#1" to="23032786#0"/>
    <trip id="bus262" type="bus_bus" depart="1587.01" departLane="best" from="-135078202#1" to="169127821#0"/>
    <trip id="bus263" type="bus_bus" depart="1593.07" departLane="best" from="-24511285#2" to="191708801#1"/>
    <trip id="bus264" type="bus_bus" depart="1599.13" departLane="best" from="-42229186" to="124929507#1"/>
    <trip id="bus265" type="bus_bus" depart="1605.19" departLane="best" departSpeed="max" from="-23032792#4" to="24146201"/>
    <trip id="bus266" type="bus_bus" depart="1611.24" departLane="best" from="-219110057#3" to="-25596853"/>
    <trip id="bus267" type="bus_bus" depart="1617.30" departLane="best" from="23032829#1" to="-537710741#1"/>
    <trip id="bus268" type="bus_bus" depart="1623.36" departLane="best" departSpeed="max" from="9514889#0" to="-23313215#2"/>
    <trip id="bus269" type="bus_bus" depart="1629.42" departLane="best" from="37181837#3" to="-23320720#4"/>
    <trip id="bus270" type="bus_bus" depart="1635.47" departLane="best" from="-385405396" to="-384972985"/>
    <trip id="bus271" type="bus_bus" depart="1641.53" departLane="best" from="10698326#1" to="-4807778#5"/>
    <trip id="bus272" type="bus_bus" depart="1647.59" departLane="best" from="345736599" to="86704644"/>
    <trip id="bus273" type="bus_bus" depart="1653.65" departLane="best" from="-26249174#0" to="-37181838#3"/>
    <trip id="bus275" type="bus_bus" depart="1665.76" departLane="best" from="-10230452#6" to="17096030#0"/>
    <trip id="bus276" type="bus_bus" depart="1671.82" departLane="best" from="-30010180" to="303259049"/>
    <trip id="bus277" type="bus_bus" depart="1677.87" departLane="best" from="26249189" to="-687182914#2"/>
    <trip id="bus279" type="bus_bus" depart="1689.99" departLane="best" from="243216783" to="694012896"/>
    <trip id="bus280" type="bus_bus" depart="1696.05" departLane="best" departSpeed="max" from="-956612326" to="23184008"/>
    <trip id="bus282" type="bus_bus" depart="1708.16" departLane="best" from="442274132" to="23032791#0"/>
    <trip id="bus283" type="bus_bus" depart="1714.22" departLane="best" departSpeed="max" from="-23439978#5" to="-54883018#1"/>
    <trip id="bus285" type="bus_bus" depart="1726.33" departLane="best" departSpeed="max" from="264621638" to="29138345"/>
    <trip id="bus286" type="bus_bus" depart="1732.39" departLane="best" from="694012906#0" to="23032788#4"/>
    <trip id="bus287" type="bus_bus" depart="1738.45" departLane="best" from="169127813#3" to="168355066#1"/>
    <trip id="bus288" type="bus_bus" depart="1744.50" departLane="best" from="474485750#1" to="-410089906"/>
    <trip id="bus289" type="bus_bus" depart="1750.56" departLane="best" departSpeed="max" from="-23093008" to="896339463#1"/>
    <trip id="bus291" type="bus_bus" depart="1762.68" departLane="best" from="8576730#0" to="990451065"/>
    <trip id="bus292" type="bus_bus" depart="1768.73" departLane="best" from="169127813#4" to="-37181840#1"/>
    <trip id="bus294" type="bus_bus" depart="1780.85" departLane="best" from="23163774#1" to="243261557"/>
    <trip id="bus295" type="bus_bus" depart="1786.91" departLane="best" from="4807753#2" to="28675675#3"/>
    <trip id="bus297" type="bus_bus" depart="1799.02" departLane="best" from="-400653106" to="23184018"/>
    <trip id="bus298" type="bus_bus" depart="1805.08" departLane="best" from="111177314#0" to="-553323717"/>
    <trip id="bus299" type="bus_bus" depart="1811.14" departLane="best" from="474485753" to="9054646"/>
    <trip id="bus300" type="bus_bus" depart="1817.19" departLane="best" from="-9054644" to="23032846"/>