<?xml version="1.0" encoding="UTF-8"?>

<!-- generated on 2023-05-01 16:58:02.343452 by osmWebWizard.py v1_16_0+0000-94ec4c6cd72
<configuration>
    <additional-files value="C:\Users\sader\Sumo\2023-05-01-16-57-47\osm_stops.add.xml,C:\Users\sader\Sumo\2023-05-01-16-57-47\osm_pt.rou.xml"/>
    <begin value="0"/>
    <end value="3600"/>
    <fringe-factor value="1"/>
    <insertion-density value="10.0"/>
    <net-file value="C:\Users\sader\Sumo\2023-05-01-16-57-47\osm.net.xml.gz"/>
    <persontrips value="True"/>
    <route-file value="C:\Users\sader\Sumo\2023-05-01-16-57-47\osm.pedestrian.rou.xml"/>
    <trip-attrites value="modes=&quot;public&quot;"/>
    <output-trip-file value="C:\Users\sader\Sumo\2023-05-01-16-57-47\osm.pedestrian.trips.xml"/>
    <prefix value="ped"/>
    <vehicle-class value="pedestrian"/>
    <persontrip.walk-opposite-factor value="0.8"/>
</configuration>
-->

<routes xmlns:xsi="http://www.w3.org/2001/XMLSchema-instance" xsi:noNamespaceSchemaLocation="http://sumo.dlr.de/xsd/routes_file.xsd">
    <vType id="ped_pedestrian" vClass="pedestrian"/>
    <person id="ped0" depart="0.00" type="ped_pedestrian">
        <personTrip from="32133771#0" to="-16361899#2" modes="public"/>
    </person>
    <person id="ped1" depart="1.71" type="ped_pedestrian">
        <personTrip from="-947677018" to="-607151535#2" modes="public"/>
    </person>
    <person id="ped2" depart="3.43" type="ped_pedestrian">
        <personTrip from="400881353#1" to="36128955#3" modes="public"/>
    </person>
    <person id="ped3" depart="5.14" type="ped_pedestrian">
        <personTrip from="692621734" to="-23312956#2" modes="public"/>
    </person>
    <person id="ped4" depart="6.85" type="ped_pedestrian">
        <personTrip from="23032828#2" to="-168355059#0" modes="public"/>
    </person>
    <person id="ped5" depart="8.56" type="ped_pedestrian">
        <personTrip from="-586684994#1" to="24008847#0" modes="public"/>
    </person>
    <person id="ped6" depart="10.28" type="ped_pedestrian">
        <personTrip from="-16361899#7" to="-53564616#0" modes="public"/>
    </person>
    <person id="ped7" depart="11.99" type="ped_pedestrian">
        <personTrip from="32623956" to="264335984" modes="public"/>
    </person>
    <person id="ped8" depart="13.70" type="ped_pedestrian">
        <personTrip from="-59054089#1" to="303259050#0" modes="public"/>
    </person>
    <person id="ped9" depart="15.41" type="ped_pedestrian">
        <personTrip from="4811294" to="-1082829461" modes="public"/>
    </person>
    <person id="ped10" depart="17.13" type="ped_pedestrian">
        <personTrip from="4807778#3" to="378237374#0" modes="public"/>
    </person>
    <person id="ped11" depart="18.84" type="ped_pedestrian">
        <personTrip from="133527470" to="-378237359#0" modes="public"/>
    </person>
    <person id="ped12" depart="20.55" type="ped_pedestrian">
        <personTrip from="902302656" to="125007811" modes="public"/>
    </person>
    <person id="ped13" depart="22.26" type="ped_pedestrian">
        <personTrip from="-23313215#5" to="-23439978#5" modes="public"/>
    </person>
    <person id="ped14" depart="23.98" type="ped_pedestrian">
        <personTrip from="607151533" to="303780090#3" modes="public"/>
    </person>
    <person id="ped15" depart="25.69" type="ped_pedestrian">
        <personTrip from="4807836#0" to="397833658" modes="public"/>
    </person>
    <person id="ped16" depart="27.40" type="ped_pedestrian">
        <personTrip from="259423427#1" to="915941786" modes="public"/>
    </person>
    <person id="ped17" depart="29.11" type="ped_pedestrian">
        <personTrip from="17059198" to="268558821#0" modes="public"/>
    </person>
    <person id="ped18" depart="30.83" type="ped_pedestrian">
        <personTrip from="54883366#4" to="314579367" modes="public"/>
    </person>
    <person id="ped19" depart="32.54" type="ped_pedestrian">
        <personTrip from="640275105" to="303259032" modes="public"/>
    </person>
    <person id="ped20" depart="34.25" type="ped_pedestrian">
        <personTrip from="37870805" to="-200692269#1" modes="public"/>
    </person>
    <person id="ped21" depart="35.96" type="ped_pedestrian">
        <personTrip from="-607937852" to="1035471372" modes="public"/>
    </person>
    <person id="ped22" depart="37.68" type="ped_pedestrian">
        <personTrip from="-23163761" to="-687589728" modes="public"/>
    </person>
    <person id="ped23" depart="39.39" type="ped_pedestrian">
        <personTrip from="-23471088" to="-95158558#0" modes="public"/>
    </person>
    <person id="ped24" depart="41.10" type="ped_pedestrian">
        <personTrip from="316335638" to="168355064#1" modes="public"/>
    </person>
    <person id="ped25" depart="42.81" type="ped_pedestrian">
        <personTrip from="169096483#2" to="-553323249#1" modes="public"/>
    </person>
    <person id="ped26" depart="44.53" type="ped_pedestrian">
        <personTrip from="-911891325" to="84913183#3" modes="public"/>
    </person>
    <person id="ped27" depart="46.24" type="ped_pedestrian">
        <personTrip from="32298004#1" to="30760068#1" modes="public"/>
    </person>
    <person id="ped28" depart="47.95" type="ped_pedestrian">
        <personTrip from="-399038514#0" to="393019011#1" modes="public"/>
    </person>
    <person id="ped29" depart="49.66" type="ped_pedestrian">
        <personTrip from="-38027017" to="17096975#2" modes="public"/>
    </person>
    <person id="ped30" depart="51.38" type="ped_pedestrian">
        <personTrip from="957481220#1" to="32133771#2" modes="public"/>
    </person>
    <person id="ped31" depart="53.09" type="ped_pedestrian">
        <personTrip from="282981263" to="366030059#2" modes="public"/>
    </person>
    <person id="ped32" depart="54.80" type="ped_pedestrian">
        <personTrip from="586684993#2" to="449240483#0" modes="public"/>
    </person>
    <person id="ped33" depart="56.51" type="ped_pedestrian">
        <personTrip from="-611781711" to="-168355065" modes="public"/>
    </person>
    <person id="ped34" depart="58.23" type="ped_pedestrian">
        <personTrip from="115373662#0" to="-911891326#2" modes="public"/>
    </person>
    <person id="ped35" depart="59.94" type="ped_pedestrian">
        <personTrip from="-561591786#0" to="876744790" modes="public"/>
    </person>
    <person id="ped36" depart="61.65" type="ped_pedestrian">
        <personTrip from="692610303#6" to="115373659#2" modes="public"/>
    </person>
    <person id="ped37" depart="63.36" type="ped_pedestrian">
        <personTrip from="332193969#3" to="202223881" modes="public"/>
    </person>
    <person id="ped38" depart="65.08" type="ped_pedestrian">
        <personTrip from="751383406#1" to="23184012" modes="public"/>
    </person>
    <person id="ped39" depart="66.79" type="ped_pedestrian">
        <personTrip from="-911891317#1" to="-783691401" modes="public"/>
    </person>
    <person id="ped40" depart="68.50" type="ped_pedestrian">
        <personTrip from="282981274#2" to="-911891303#2" modes="public"/>
    </person>
    <person id="ped41" depart="70.21" type="ped_pedestrian">
        <personTrip from="303259041#1" to="693946723#1" modes="public"/>
    </person>
    <person id="ped42" depart="71.93" type="ped_pedestrian">
        <personTrip from="202223922" to="-58761541#0" modes="public"/>
    </person>
    <person id="ped43" depart="73.64" type="ped_pedestrian">
        <personTrip from="984678891#1" to="24437132#0" modes="public"/>
    </person>
    <person id="ped44" depart="75.35" type="ped_pedestrian">
        <personTrip from="-23313209#1" to="-202223915" modes="public"/>
    </person>
    <person id="ped45" depart="77.06" type="ped_pedestrian">
        <personTrip from="-250004209" to="31626945#1" modes="public"/>
    </person>
    <person id="ped46" depart="78.78" type="ped_pedestrian">
        <personTrip from="47082073" to="23032829#0" modes="public"/>
    </person>
    <person id="ped47" depart="80.49" type="ped_pedestrian">
        <personTrip from="-23093006" to="180664956" modes="public"/>
    </person>
    <person id="ped48" depart="82.20" type="ped_pedestrian">
        <personTrip from="973347367" to="247063363#0" modes="public"/>
    </person>
    <person id="ped49" depart="83.91" type="ped_pedestrian">
        <personTrip from="911891326#2" to="639911409" modes="public"/>
    </person>
    <person id="ped50" depart="85.63" type="ped_pedestrian">
        <personTrip from="-1124421114" to="386851193#1" modes="public"/>
    </person>
    <person id="ped51" depart="87.34" type="ped_pedestrian">
        <personTrip from="364977460" to="259814636" modes="public"/>
    </person>
    <person id="ped52" depart="89.05" type="ped_pedestrian">
        <personTrip from="-911891325" to="32138164#2" modes="public"/>
    </person>
    <person id="ped53" depart="90.76" type="ped_pedestrian">
        <personTrip from="-25497562#1" to="23094751#3" modes="public"/>
    </person>
    <person id="ped54" depart="92.48" type="ped_pedestrian">
        <personTrip from="23176410#1" to="894722993" modes="public"/>
    </person>
    <person id="ped55" depart="94.19" type="ped_pedestrian">
        <personTrip from="692610303#4" to="-911891313#0" modes="public"/>
    </person>
    <person id="ped56" depart="95.90" type="ped_pedestrian">
        <personTrip from="23471056#1" to="-42326227#0" modes="public"/>
    </person>
    <person id="ped57" depart="97.61" type="ped_pedestrian">
        <personTrip from="694075476#0" to="692610290" modes="public"/>
    </person>
    <person id="ped58" depart="99.33" type="ped_pedestrian">
        <personTrip from="1104610968" to="32133770" modes="public"/>
    </person>
    <person id="ped59" depart="101.04" type="ped_pedestrian">
        <personTrip from="30760068#1" to="-37181838#3" modes="public"/>
    </person>
    <person id="ped60" depart="102.75" type="ped_pedestrian">
        <personTrip from="42326255#3" to="26249181" modes="public"/>
    </person>
    <person id="ped61" depart="104.46" type="ped_pedestrian">
        <personTrip from="449241028" to="250004209" modes="public"/>
    </person>
    <person id="ped62" depart="106.18" type="ped_pedestrian">
        <personTrip from="-10230452#1" to="115373681#0" modes="public"/>
    </person>
    <person id="ped63" depart="107.89" type="ped_pedestrian">
        <personTrip from="-124929517" to="823046840#1" modes="public"/>
    </person>
    <person id="ped64" depart="109.60" type="ped_pedestrian">
        <personTrip from="692610311#1" to="553323717" modes="public"/>
    </person>
    <person id="ped65" depart="111.31" type="ped_pedestrian">
        <personTrip from="115373649#1" to="-23032787#6" modes="public"/>
    </person>
    <person id="ped66" depart="113.03" type="ped_pedestrian">
        <personTrip from="692610310" to="88336155#0" modes="public"/>
    </person>
    <person id="ped67" depart="114.74" type="ped_pedestrian">
        <personTrip from="-23195847" to="23316363#1" modes="public"/>
    </person>
    <person id="ped68" depart="116.45" type="ped_pedestrian">
        <personTrip from="-23138541#0" to="42326224#1" modes="public"/>
    </person>
    <person id="ped69" depart="118.16" type="ped_pedestrian">
        <personTrip from="438385892" to="-30010690#2" modes="public"/>
    </person>
    <person id="ped70" depart="119.88" type="ped_pedestrian">
        <personTrip from="23312963#0" to="267047499#3" modes="public"/>
    </person>
    <person id="ped71" depart="121.59" type="ped_pedestrian">
        <personTrip from="-911891317#1" to="692610296#3" modes="public"/>
    </person>
    <person id="ped72" depart="123.30" type="ped_pedestrian">
        <personTrip from="23032837#0" to="-561591786#2" modes="public"/>
    </person>
    <person id="ped73" depart="125.01" type="ped_pedestrian">
        <personTrip from="26249181" to="397833659" modes="public"/>
    </person>
    <person id="ped74" depart="126.73" type="ped_pedestrian">
        <personTrip from="-53564617#5" to="115373654#5" modes="public"/>
    </person>
    <person id="ped75" depart="128.44" type="ped_pedestrian">
        <personTrip from="970616255#0" to="32623956" modes="public"/>
    </person>
    <person id="ped76" depart="130.15" type="ped_pedestrian">
        <personTrip from="23095743" to="24608403" modes="public"/>
    </person>
    <person id="ped77" depart="131.86" type="ped_pedestrian">
        <personTrip from="-282981264" to="-607152571" modes="public"/>
    </person>
    <person id="ped78" depart="133.58" type="ped_pedestrian">
        <personTrip from="125007831" to="303259046#2" modes="public"/>
    </person>
    <person id="ped79" depart="135.29" type="ped_pedestrian">
        <personTrip from="-61832205" to="-59054089#0" modes="public"/>
    </person>
    <person id="ped80" depart="137.00" type="ped_pedestrian">
        <personTrip from="-23138699#0" to="31626958" modes="public"/>
    </person>
    <person id="ped81" depart="138.71" type="ped_pedestrian">
        <personTrip from="-611781710#1" to="694012888#1" modes="public"/>
    </person>
    <person id="ped82" depart="140.43" type="ped_pedestrian">
        <personTrip from="639832305" to="-23138699#0" modes="public"/>
    </person>
    <person id="ped83" depart="142.14" type="ped_pedestrian">
        <personTrip from="-692610328" to="345736617#2" modes="public"/>
    </person>
    <person id="ped84" depart="143.85" type="ped_pedestrian">
        <personTrip from="-56255595#1" to="-309741183" modes="public"/>
    </person>
    <person id="ped85" depart="145.56" type="ped_pedestrian">
        <personTrip from="84913183#0" to="299929337#2" modes="public"/>
    </person>
    <person id="ped86" depart="147.28" type="ped_pedestrian">
        <personTrip from="23196349" to="460942110#1" modes="public"/>
    </person>
    <person id="ped87" depart="148.99" type="ped_pedestrian">
        <personTrip from="4807879#0" to="-4807836#0" modes="public"/>
    </person>
    <person id="ped88" depart="150.70" type="ped_pedestrian">
        <personTrip from="-23471009" to="23093190#0" modes="public"/>
    </person>
    <person id="ped89" depart="152.41" type="ped_pedestrian">
        <personTrip from="23093001" to="23184033#1" modes="public"/>
    </person>
    <person id="ped90" depart="154.13" type="ped_pedestrian">
        <personTrip from="393019011#1" to="345748665#4" modes="public"/>
    </person>
    <person id="ped91" depart="155.84" type="ped_pedestrian">
        <personTrip from="947677018" to="-23471024#0" modes="public"/>
    </person>
    <person id="ped92" depart="157.55" type="ped_pedestrian">
        <personTrip from="205275339" to="128873577#1" modes="public"/>
    </person>
    <person id="ped93" depart="159.27" type="ped_pedestrian">
        <personTrip from="640275105" to="-823062060" modes="public"/>
    </person>
    <person id="ped94" depart="160.98" type="ped_pedestrian">
        <personTrip from="-4807777" to="23151403#2" modes="public"/>
    </person>
    <person id="ped95" depart="162.69" type="ped_pedestrian">
        <personTrip from="23032828#2" to="-95158558#1" modes="public"/>
    </person>
    <person id="ped96" depart="164.40" type="ped_pedestrian">
        <personTrip from="-86704644" to="783691400" modes="public"/>
    </person>
    <person id="ped97" depart="166.12" type="ped_pedestrian">
        <personTrip from="23147580#2" to="639911411" modes="public"/>
    </person>
    <person id="ped98" depart="167.83" type="ped_pedestrian">
        <personTrip from="26738118" to="-220150857#0" modes="public"/>
    </person>
    <person id="ped99" depart="169.54" type="ped_pedestrian">
        <personTrip from="98502156#0" to="56255593" modes="public"/>
    </person>
    <person id="ped100" depart="171.25" type="ped_pedestrian">
        <personTrip from="911891317#2" to="805470435#0" modes="public"/>
    </person>
    <person id="ped101" depart="172.97" type="ped_pedestrian">
        <personTrip from="607151535#2" to="-387401261" modes="public"/>
    </person>
    <person id="ped102" depart="174.68" type="ped_pedestrian">
        <personTrip from="23316363#0" to="-56255593" modes="public"/>
    </person>
    <person id="ped103" depart="176.39" type="ped_pedestrian">
        <personTrip from="202572128" to="-23032790#0" modes="public"/>
    </person>
    <person id="ped104" depart="178.10" type="ped_pedestrian">
        <personTrip from="17096975#1" to="9514888#3" modes="public"/>
    </person>
    <person id="ped105" depart="179.82" type="ped_pedestrian">
        <personTrip from="-911891317#2" to="460942110#0" modes="public"/>
    </person>
    <person id="ped106" depart="181.53" type="ped_pedestrian">
        <personTrip from="23184001#0" to="23032837#0" modes="public"/>
    </person>
    <person id="ped107" depart="183.24" type="ped_pedestrian">
        <personTrip from="902302657" to="970616255#1" modes="public"/>
    </person>
    <person id="ped108" depart="184.95" type="ped_pedestrian">
        <personTrip from="282981260#3" to="386832700" modes="public"/>
    </person>
    <person id="ped109" depart="186.67" type="ped_pedestrian">
        <personTrip from="-37721066#0" to="109009297" modes="public"/>
    </person>
    <person id="ped110" depart="188.38" type="ped_pedestrian">
        <personTrip from="911891317#1" to="303259035#2" modes="public"/>
    </person>
    <person id="ped111" depart="190.09" type="ped_pedestrian">
        <personTrip from="262918658" to="404783339#2" modes="public"/>
    </person>
    <person id="ped112" depart="191.80" type="ped_pedestrian">
        <personTrip from="-23032787#4" to="303259041#0" modes="public"/>
    </person>
    <person id="ped113" depart="193.52" type="ped_pedestrian">
        <personTrip from="23471091#1" to="607937850" modes="public"/>
    </person>
    <person id="ped114" depart="195.23" type="ped_pedestrian">
        <personTrip from="-378237360" to="902302667" modes="public"/>
    </person>
    <person id="ped115" depart="196.94" type="ped_pedestrian">
        <personTrip from="-23163763#0" to="-464521753" modes="public"/>
    </person>
    <person id="ped116" depart="198.65" type="ped_pedestrian">
        <personTrip from="303780048" to="35822596#1" modes="public"/>
    </person>
    <person id="ped117" depart="200.37" type="ped_pedestrian">
        <personTrip from="-692610283" to="-282981260#1" modes="public"/>
    </person>
    <person id="ped118" depart="202.08" type="ped_pedestrian">
        <personTrip from="692621730" to="-783691399" modes="public"/>
    </person>
    <person id="ped119" depart="203.79" type="ped_pedestrian">
        <personTrip from="303780045" to="314596701" modes="public"/>
    </person>
    <person id="ped120" depart="205.50" type="ped_pedestrian">
        <personTrip from="23032790#1" to="303259040" modes="public"/>
    </person>
    <person id="ped121" depart="207.22" type="ped_pedestrian">
        <personTrip from="24621652#2" to="837518087" modes="public"/>
    </person>
    <person id="ped122" depart="208.93" type="ped_pedestrian">
        <personTrip from="-537710741#0" to="38389189" modes="public"/>
    </person>
    <person id="ped123" depart="210.64" type="ped_pedestrian">
        <personTrip from="-692610329#1" to="202223898" modes="public"/>
    </person>
    <person id="ped124" depart="212.35" type="ped_pedestrian">
        <personTrip from="345748664" to="111177309#4" modes="public"/>
    </person>
    <person id="ped125" depart="214.07" type="ped_pedestrian">
        <personTrip from="115373663#0" to="404790259#1" modes="public"/>
    </person>
    <person id="ped126" depart="215.78" type="ped_pedestrian">
        <personTrip from="-23147576#0" to="23184010" modes="public"/>
    </person>
    <person id="ped127" depart="217.49" type="ped_pedestrian">
        <personTrip from="98502153#0" to="973347367" modes="public"/>
    </person>
    <person id="ped128" depart="219.20" type="ped_pedestrian">
        <personTrip from="-23147578#0" to="-56255591#1" modes="public"/>
    </person>
    <person id="ped129" depart="220.92" type="ped_pedestrian">
        <personTrip from="-911891317#2" to="823051190" modes="public"/>
    </person>
    <person id="ped130" depart="222.63" type="ped_pedestrian">
        <personTrip from="692610320" to="692610312" modes="public"/>
    </person>
    <person id="ped131" depart="224.34" type="ped_pedestrian">
        <personTrip from="168357260" to="-378237361" modes="public"/>
    </person>
    <person id="ped132" depart="226.05" type="ped_pedestrian">
        <personTrip from="562273432#2" to="378237421" modes="public"/>
    </person>
    <person id="ped133" depart="227.77" type="ped_pedestrian">
        <personTrip from="30769179#0" to="95158558#0" modes="public"/>
    </person>
    <person id="ped134" depart="229.48" type="ped_pedestrian">
        <personTrip from="332193967#1" to="-1103106740#0" modes="public"/>
    </person>
    <person id="ped135" depart="231.19" type="ped_pedestrian">
        <personTrip from="5051407#3" to="111177309#2" modes="public"/>
    </person>
    <person id="ped136" depart="232.90" type="ped_pedestrian">
        <personTrip from="34395372#0" to="851919086#2" modes="public"/>
    </person>
    <person id="ped137" depart="234.62" type="ped_pedestrian">
        <personTrip from="-314579364" to="-262755905" modes="public"/>
    </person>
    <person id="ped138" depart="236.33" type="ped_pedestrian">
        <personTrip from="-24621681#0" to="269563635#0" modes="public"/>
    </person>
    <person id="ped139" depart="238.04" type="ped_pedestrian">
        <personTrip from="-946426135" to="304418810" modes="public"/>
    </person>
    <person id="ped140" depart="239.75" type="ped_pedestrian">
        <personTrip from="386500268#1" to="-53564795" modes="public"/>
    </person>
    <person id="ped141" depart="241.47" type="ped_pedestrian">
        <personTrip from="316335633" to="-911891315" modes="public"/>
    </person>
    <person id="ped142" depart="243.18" type="ped_pedestrian">
        <personTrip from="23316373" to="694012888#1" modes="public"/>
    </person>
    <person id="ped143" depart="244.89" type="ped_pedestrian">
        <personTrip from="60430587" to="-23313215#4" modes="public"/>
    </person>
    <person id="ped144" depart="246.60" type="ped_pedestrian">
        <personTrip from="23093001" to="-9514888#5" modes="public"/>
    </person>
    <person id="ped145" depart="248.32" type="ped_pedestrian">
        <personTrip from="-1023926182#2" to="442274147" modes="public"/>
    </person>
    <person id="ped146" depart="250.03" type="ped_pedestrian">
        <personTrip from="32113059" to="-911891302#1" modes="public"/>
    </person>
    <person id="ped147" depart="251.74" type="ped_pedestrian">
        <personTrip from="401248964#0" to="26738365#1" modes="public"/>
    </person>
    <person id="ped148" depart="253.45" type="ped_pedestrian">
        <personTrip from="23093007" to="-111177309#2" modes="public"/>
    </person>
    <person id="ped149" depart="255.17" type="ped_pedestrian">
        <personTrip from="-23147581#0" to="692610324#1" modes="public"/>
    </person>
    <person id="ped150" depart="256.88" type="ped_pedestrian">
        <personTrip from="694012884#2" to="264335986" modes="public"/>
    </person>
    <person id="ped151" depart="258.59" type="ped_pedestrian">
        <personTrip from="56255590#0" to="303259037" modes="public"/>
    </person>
    <person id="ped152" depart="260.30" type="ped_pedestrian">
        <personTrip from="-36128959#2" to="-291431512" modes="public"/>
    </person>
    <person id="ped153" depart="262.02" type="ped_pedestrian">
        <personTrip from="115373650#2" to="694012876#1" modes="public"/>
    </person>
    <person id="ped154" depart="263.73" type="ped_pedestrian">
        <personTrip from="4807744#1" to="639832307#1" modes="public"/>
    </person>
    <person id="ped155" depart="265.44" type="ped_pedestrian">
        <personTrip from="694012876#1" to="-553323250" modes="public"/>
    </person>
    <person id="ped156" depart="267.15" type="ped_pedestrian">
        <personTrip from="-837521443" to="-23999282#1" modes="public"/>
    </person>
    <person id="ped157" depart="268.87" type="ped_pedestrian">
        <personTrip from="450675163#1" to="692610326#3" modes="public"/>
    </person>
    <person id="ped158" depart="270.58" type="ped_pedestrian">
        <personTrip from="220150860" to="314597894" modes="public"/>
    </person>
    <person id="ped159" depart="272.29" type="ped_pedestrian">
        <personTrip from="-37721065#1" to="823051185#1" modes="public"/>
    </person>
    <person id="ped160" depart="274.00" type="ped_pedestrian">
        <personTrip from="687182908#2" to="937818257#0" modes="public"/>
    </person>
    <person id="ped161" depart="275.72" type="ped_pedestrian">
        <personTrip from="4811331#2" to="692610322#0" modes="public"/>
    </person>
    <person id="ped162" depart="277.43" type="ped_pedestrian">
        <personTrip from="-16361899#0" to="400881353#1" modes="public"/>
    </person>
    <person id="ped163" depart="279.14" type="ped_pedestrian">
        <personTrip from="117546238#7" to="823051185#4" modes="public"/>
    </person>
    <person id="ped164" depart="280.85" type="ped_pedestrian">
        <personTrip from="4807772#0" to="687182908#0" modes="public"/>
    </person>
    <person id="ped165" depart="282.57" type="ped_pedestrian">
        <personTrip from="4811331#2" to="-911891325" modes="public"/>
    </person>
    <person id="ped166" depart="284.28" type="ped_pedestrian">
        <personTrip from="46165360#1" to="-24621760#0" modes="public"/>
    </person>
    <person id="ped167" depart="285.99" type="ped_pedestrian">
        <personTrip from="692610296#2" to="635962179" modes="public"/>
    </person>
    <person id="ped168" depart="287.70" type="ped_pedestrian">
        <personTrip from="-607149764" to="5051407#1" modes="public"/>
    </person>
    <person id="ped169" depart="289.42" type="ped_pedestrian">
        <personTrip from="23184019#0" to="113630879" modes="public"/>
    </person>
    <person id="ped170" depart="291.13" type="ped_pedestrian">
        <personTrip from="474485750#2" to="-607937851" modes="public"/>
    </person>
    <person id="ped171" depart="292.84" type="ped_pedestrian">
        <personTrip from="-156258606#0" to="-4811548#0" modes="public"/>
    </person>
    <person id="ped172" depart="294.55" type="ped_pedestrian">
        <personTrip from="1163119438#0" to="687182908#1" modes="public"/>
    </person>
    <person id="ped173" depart="296.27" type="ped_pedestrian">
        <personTrip from="911891309#3" to="-956612326" modes="public"/>
    </person>
    <person id="ped174" depart="297.98" type="ped_pedestrian">
        <personTrip from="32138164#4" to="202223924" modes="public"/>
    </person>
    <person id="ped175" depart="299.69" type="ped_pedestrian">
        <personTrip from="946426134" to="259423427#1" modes="public"/>
    </person>
    <person id="ped176" depart="301.40" type="ped_pedestrian">
        <personTrip from="851919087#0" to="-262755905" modes="public"/>
    </person>
    <person id="ped177" depart="303.12" type="ped_pedestrian">
        <personTrip from="911891325" to="-42326227#0" modes="public"/>
    </person>
    <person id="ped178" depart="304.83" type="ped_pedestrian">
        <personTrip from="909754031#0" to="-911891317#2" modes="public"/>
    </person>
    <person id="ped179" depart="306.54" type="ped_pedestrian">
        <personTrip from="-24621760#1" to="23094751#2" modes="public"/>
    </person>
    <person id="ped180" depart="308.25" type="ped_pedestrian">
        <personTrip from="39300710" to="115373658" modes="public"/>
    </person>
    <person id="ped181" depart="309.97" type="ped_pedestrian">
        <personTrip from="30760065#0" to="24509652#2" modes="public"/>
    </person>
    <person id="ped182" depart="311.68" type="ped_pedestrian">
        <personTrip from="180676785" to="303259031#0" modes="public"/>
    </person>
    <person id="ped183" depart="313.39" type="ped_pedestrian">
        <personTrip from="-884309044#0" to="37982168" modes="public"/>
    </person>
    <person id="ped184" depart="315.11" type="ped_pedestrian">
        <personTrip from="-10230452#5" to="80179638" modes="public"/>
    </person>
    <person id="ped185" depart="316.82" type="ped_pedestrian">
        <personTrip from="26249175" to="386832703#1" modes="public"/>
    </person>
    <person id="ped186" depart="318.53" type="ped_pedestrian">
        <personTrip from="401262917" to="345744702" modes="public"/>
    </person>
    <person id="ped187" depart="320.24" type="ped_pedestrian">
        <personTrip from="168355063" to="-23138542#0" modes="public"/>
    </person>
    <person id="ped188" depart="321.96" type="ped_pedestrian">
        <personTrip from="34395375" to="117546238#1" modes="public"/>
    </person>
    <person id="ped189" depart="323.67" type="ped_pedestrian">
        <personTrip from="115373659#0" to="607151535#0" modes="public"/>
    </person>
    <person id="ped190" depart="325.38" type="ped_pedestrian">
        <personTrip from="386851192#0" to="111177316" modes="public"/>
    </person>
    <person id="ped191" depart="327.09" type="ped_pedestrian">
        <personTrip from="115373652#1" to="22910593" modes="public"/>
    </person>
    <person id="ped192" depart="328.81" type="ped_pedestrian">
        <personTrip from="203186203" to="1082829461" modes="public"/>
    </person>
    <person id="ped193" depart="330.52" type="ped_pedestrian">
        <personTrip from="-291431512" to="23032792#3" modes="public"/>
    </person>
    <person id="ped194" depart="332.23" type="ped_pedestrian">
        <personTrip from="8571803#0" to="36128955#5" modes="public"/>
    </person>
    <person id="ped195" depart="333.94" type="ped_pedestrian">
        <personTrip from="694012883#2" to="31155466#1" modes="public"/>
    </person>