<?xml version="1.0" encoding="UTF-8"?>

<!-- generated on 2023-05-01 16:58:02.278265 by osmWebWizard.py v1_16_0+0000-94ec4c6cd72
<configuration>
    <allow-fringe.min-length value="1000.0"/>
    <begin value="0"/>
    <end value="3600"/>
    <fringe-factor value="5"/>
    <fringe-start-attributes value="departSpeed=&quot;max&quot;"/>
    <insertion-density value="12.0"/>
    <lanes value="True"/>
    <min-distance.fringe value="10.0"/>
    <min-distance value="300.0"/>
    <net-file value="C:\Users\sader\Sumo\2023-05-01-16-57-47\osm.net.xml.gz"/>
    <remove-loops value="True"/>
    <route-file value="C:\Users\sader\Sumo\2023-05-01-16-57-47\osm.passenger.rou.xml"/>
    <trip-attributes value="departLane=&quot;best&quot;"/>
    <output-trip-file value="C:\Users\sader\Sumo\2023-05-01-16-57-47\osm.passenger.trips.xml"/>
    <prefix value="veh"/>
    <validate value="True"/>
    <vehicle-class value="passenger"/>
</configuration>
-->

<!-- generated on 2023-05-01 16:58:01 by Eclipse SUMO duarouter Version 1.16.0
<configuration xmlns:xsi="http://www.w3.org/2001/XMLSchema-instance" xsi:noNamespaceSchemaLocation="http://sumo.dlr.de/xsd/duarouterConfiguration.xsd">

    <input>
        <net-file value="C:\Users\sader\Sumo\2023-05-01-16-57-47\osm.net.xml.gz"/>
        <route-files value="C:\Users\sader\Sumo\2023-05-01-16-57-47\osm.passenger.trips.xml"/>
    </input>

    <output>
        <output-file value="C:\Users\sader\Sumo\2023-05-01-16-57-47\osm.passenger.trips.xml.tmp"/>
        <alternatives-output value="NUL"/>
        <write-trips value="true"/>
    </output>

    <processing>
        <remove-loops value="true"/>
    </processing>

    <time>
        <begin value="0"/>
        <end value="3600"/>
    </time>

    <report>
        <no-warnings value="true"/>
        <ignore-errors value="true"/>
        <no-step-log value="true"/>
    </report>

</configuration>
-->

<routes xmlns:xsi="http://www.w3.org/2001/XMLSchema-instance" xsi:noNamespaceSchemaLocation="http://sumo.dlr.de/xsd/routes_file.xsd">
    <vType id="veh_passenger" vClass="passenger"/>
    <trip id="veh0" type="veh_passenger" depart="0.00" departLane="best" from="-24510734#0" to="-135078201"/>
    <trip id="veh1" type="veh_passenger" depart="2.04" departLane="best" departSpeed="max" from="-417059635" to="-387498728#1"/>
    <trip id="veh2" type="veh_passenger" depart="4.08" departLane="best" from="36905364#0" to="30010180"/>
    <trip id="veh3" type="veh_passenger" depart="6.12" departLane="best" from="537710741#2" to="-23093186"/>
    <trip id="veh5" type="veh_passenger" depart="10.20" departLane="best" departSpeed="max" from="-350217703" to="23032845#2"/>
    <trip id="veh6" type="veh_passenger" depart="12.24" departLane="best" departSpeed="max" from="-16361889#4" to="378237359#0"/>
    <trip id="veh7" type="veh_passenger" depart="14.27" departLane="best" departSpeed="max" from="261543529" to="23184026"/>
    <trip id="veh9" type="veh_passenger" depart="18.35" departLane="best" from="423481788#0" to="-10230452#5"/>
    <trip id="veh10" type="veh_passenger" depart="20.39" departLane="best" from="-42229186" to="345736587#1"/>
    <trip id="veh12" type="veh_passenger" depart="24.47" departLane="best" from="881678625#4" to="911891326#1"/>
    <trip id="veh13" type="veh_passenger" depart="26.51" departLane="best" departSpeed="max" from="-23093189" to="23163758"/>
    <trip id="veh14" type="veh_passenger" depart="28.55" departLane="best" from="4807753#1" to="-24008850#0"/>
    <trip id="veh15" type="veh_passenger" depart="30.59" departLane="best" from="423481774#1" to="37181838#2"/>
    <trip id="veh16" type="veh_passenger" depart="32.63" departLane="best" from="-23032791#0" to="911891326#2"/>
    <trip id="veh17" type="veh_passenger" depart="34.67" departLane="best" from="-939228251" to="23192896#1"/>
    <trip id="veh18" type="veh_passenger" depart="36.71" departLane="best" departSpeed="max" from="474485723" to="24510734#1"/>
    <trip id="veh20" type="veh_passenger" depart="40.78" departLane="best" departSpeed="max" from="341509728" to="-17096975#0"/>
    <trip id="veh21" type="veh_passenger" depart="42.82" departLane="best" from="36905364#2" to="-537710741#2"/>
    <trip id="veh22" type="veh_passenger" depart="44.86" departLane="best" from="-23032847#1" to="40817206#2"/>
    <trip id="veh23" type="veh_passenger" depart="46.90" departLane="best" from="23163777#1" to="-4811453#3"/>
    <trip id="veh24" type="veh_passenger" depart="48.94" departLane="best" from="243261567" to="10419529#0"/>
    <trip id="veh25" type="veh_passenger" depart="50.98" departLane="best" departSpeed="max" from="-903117233#2" to="-38361910"/>
    <trip id="veh26" type="veh_passenger" depart="53.02" departLane="best" from="-393019010#0" to="694012906#1"/>
    <trip id="veh27" type="veh_passenger" depart="55.06" departLane="best" from="261543528" to="243216837"/>
    <trip id="veh29" type="veh_passenger" depart="59.14" departLane="best" from="-24511285#2" to="11335846#1"/>
    <trip id="veh30" type="veh_passenger" depart="61.18" departLane="best" from="951272188" to="26249172#4"/>
    <trip id="veh31" type="veh_passenger" depart="63.21" departLane="best" from="23093188#0" to="-31424596#0"/>
    <trip id="veh32" type="veh_passenger" depart="65.25" departLane="best" from="-4807746#4" to="387155262"/>
    <trip id="veh33" type="veh_passenger" depart="67.29" departLane="best" from="-37181837#1" to="16361890"/>
    <trip id="veh34" type="veh_passenger" depart="69.33" departLane="best" from="-4807880#1" to="4807766"/>
    <trip id="veh35" type="veh_passenger" depart="71.37" departLane="best" from="-31787956" to="8576730#0"/>
    <trip id="veh36" type="veh_passenger" depart="73.41" departLane="best" departSpeed="max" from="4811453#0" to="-692561003"/>
    <trip id="veh37" type="veh_passenger" depart="75.45" departLane="best" from="-26249172#3" to="138203604#0"/>
    <trip id="veh38" type="veh_passenger" depart="77.49" departLane="best" from="611784190" to="199665487#1"/>
    <trip id="veh39" type="veh_passenger" depart="79.53" departLane="best" from="23094757" to="4807746#4"/>
    <trip id="veh40" type="veh_passenger" depart="81.57" departLane="best" from="23196349" to="562273438"/>
    <trip id="veh41" type="veh_passenger" depart="83.61" departLane="best" departSpeed="max" from="10230452#0" to="-387401253#1"/>
    <trip id="veh42" type="veh_passenger" depart="85.65" departLane="best" from="-9515059#1" to="23092999#1"/>
    <trip id="veh43" type="veh_passenger" depart="87.68" departLane="best" from="23093187#1" to="-17096975#2"/>
    <trip id="veh44" type="veh_passenger" depart="89.72" departLane="best" departSpeed="max" from="23184014" to="247063363#0"/>
    <trip id="veh45" type="veh_passenger" depart="91.76" departLane="best" from="387498728#2" to="16361899#7"/>
    <trip id="veh46" type="veh_passenger" depart="93.80" departLane="best" from="-23032788#1" to="11335855#1"/>
    <trip id="veh47" type="veh_passenger" depart="95.84" departLane="best" departSpeed="max" from="9514889#0" to="-23094757"/>
    <trip id="veh48" type="veh_passenger" depart="97.88" departLane="best" from="-1103106740#1" to="366030056#0"/>
    <trip id="veh49" type="veh_passenger" depart="99.92" departLane="best" departSpeed="max" from="29036906#0" to="23184009#1"/>
    <trip id="veh50" type="veh_passenger" depart="101.96" departLane="best" from="-393019010#0" to="26249172#4"/>
    <trip id="veh51" type="veh_passenger" depart="104.00" departLane="best" departSpeed="max" from="-23184018" to="169224407#1"/>
    <trip id="veh52" type="veh_passenger" depart="106.04" departLane="best" from="-146911733" to="88336156#1"/>
    <trip id="veh53" type="veh_passenger" depart="108.08" departLane="best" from="189364993#0" to="-341509728"/>
    <trip id="veh54" type="veh_passenger" depart="110.12" departLane="best" from="-592426952" to="4811395#0"/>
    <trip id="veh55" type="veh_passenger" depart="112.15" departLane="best" from="-4807746#4" to="26249172#0"/>
    <trip id="veh56" type="veh_passenger" depart="114.19" departLane="best" departSpeed="max" from="23320720#0" to="265450242"/>
    <trip id="veh57" type="veh_passenger" depart="116.23" departLane="best" from="-38361910" to="23184018"/>
    <trip id="veh58" type="veh_passenger" depart="118.27" departLane="best" from="386832702" to="-23147277#0"/>
    <trip id="veh59" type="veh_passenger" depart="120.31" departLane="best" from="10230452#1" to="881678625#4"/>
    <trip id="veh60" type="veh_passenger" depart="122.35" departLane="best" from="-135078205" to="694012897#0"/>
    <trip id="veh61" type="veh_passenger" depart="124.39" departLane="best" from="4811453#4" to="4807752#0"/>
    <trip id="veh62" type="veh_passenger" depart="126.43" departLane="best" departSpeed="max" from="-4807768#1" to="-219110057#0"/>
    <trip id="veh65" type="veh_passenger" depart="132.55" departLane="best" from="388285826" to="-4811453#5"/>
    <trip id="veh66" type="veh_passenger" depart="134.59" departLane="best" from="107757513" to="-386831074"/>
    <trip id="veh67" type="veh_passenger" depart="136.62" departLane="best" from="23032828#0" to="37181838#3"/>
    <trip id="veh68" type="veh_passenger" depart="138.66" departLane="best" from="-30010175" to="686955221"/>
    <trip id="veh69" type="veh_passenger" depart="140.70" departLane="best" departSpeed="max" from="9514889#0" to="26249181"/>
    <trip id="veh70" type="veh_passenger" depart="142.74" departLane="best" from="1157387459#0" to="23093009"/>
    <trip id="veh71" type="veh_passenger" depart="144.78" departLane="best" departSpeed="max" from="-23196346" to="-387498728#3"/>
    <trip id="veh72" type="veh_passenger" depart="146.82" departLane="best" from="553323249#2" to="23320738#1"/>
    <trip id="veh73" type="veh_passenger" depart="148.86" departLane="best" from="-37181837#3" to="387401256#1"/>
    <trip id="veh75" type="veh_passenger" depart="152.94" departLane="best" from="-37181837#1" to="611781710#1"/>
    <trip id="veh76" type="veh_passenger" depart="154.98" departLane="best" from="4807778#5" to="23032786#1"/>
    <trip id="veh77" type="veh_passenger" depart="157.02" departLane="best" from="-378237356" to="-28676144"/>
    <trip id="veh79" type="veh_passenger" depart="161.09" departLane="best" from="169127813#3" to="-388285826"/>
    <trip id="veh80" type="veh_passenger" depart="163.13" departLane="best" from="423481777" to="366030058#3"/>
    <trip id="veh81" type="veh_passenger" depart="165.17" departLane="best" from="23095743" to="169127821#0"/>
    <trip id="veh82" type="veh_passenger" depart="167.21" departLane="best" from="-139468853" to="220150011#1"/>
    <trip id="veh83" type="veh_passenger" depart="169.25" departLane="best" departSpeed="max" from="350217704#0" to="29139496"/>
    <trip id="veh84" type="veh_passenger" depart="171.29" departLane="best" from="926867325" to="-23163774#1"/>
    <trip id="veh85" type="veh_passenger" depart="173.33" departLane="best" from="10230452#3" to="926867314"/>
    <trip id="veh86" type="veh_passenger" depart="175.37" departLane="best" from="4807780#2" to="-448974998"/>
    <trip id="veh87" type="veh_passenger" depart="177.41" departLane="best" departSpeed="max" from="107757511" to="-4811453#5"/>
    <trip id="veh88" type="veh_passenger" depart="179.45" departLane="best" from="-383983719" to="-692610297"/>
    <trip id="veh89" type="veh_passenger" depart="181.49" departLane="best" from="135078201" to="4807784#1"/>
    <trip id="veh90" type="veh_passenger" depart="183.53" departLane="best" from="23093009" to="-182058678#1"/>
    <trip id="veh91" type="veh_passenger" depart="185.56" departLane="best" from="-978314929" to="-4807759#1"/>
    <trip id="veh92" type="veh_passenger" depart="187.60" departLane="best" from="146908199#2" to="694012881"/>
    <trip id="veh93" type="veh_passenger" depart="189.64" departLane="best" from="4807755#0" to="-30010176#0"/>
    <trip id="veh94" type="veh_passenger" depart="191.68" departLane="best" from="17096975#1" to="-386832703#1"/>
    <trip id="veh97" type="veh_passenger" depart="197.80" departLane="best" from="23093187#1" to="366030054#0"/>
    <trip id="veh100" type="veh_passenger" depart="203.92" departLane="best" from="23032829#1" to="378237362#3"/>
    <trip id="veh101" type="veh_passenger" depart="205.96" departLane="best" from="-22910596#2" to="-23320720#2"/>
    <trip id="veh103" type="veh_passenger" depart="210.03" departLane="best" departSpeed="max" from="23736862" to="896339463#1"/>
    <trip id="veh104" type="veh_passenger" depart="212.07" departLane="best" from="-23092999#1" to="-366030054#1"/>
    <trip id="veh105" type="veh_passenger" depart="214.11" departLane="best" from="23312958#0" to="299929338#1"/>
    <trip id="veh106" type="veh_passenger" depart="216.15" departLane="best" departSpeed="max" from="-37721066#1" to="-23320720#1"/>
    <trip id="veh107" type="veh_passenger" depart="218.19" departLane="best" departSpeed="max" from="537710741#0" to="-448974998"/>
    <trip id="veh108" type="veh_passenger" depart="220.23" departLane="best" from="23312957#1" to="24511285#2"/>
    <trip id="veh109" type="veh_passenger" depart="222.27" departLane="best" departSpeed="max" from="107757511" to="23316367"/>
    <trip id="veh110" type="veh_passenger" depart="224.31" departLane="best" from="-22910608#1" to="694012903"/>
    <trip id="veh111" type="veh_passenger" depart="226.35" departLane="best" departSpeed="max" from="-303259049" to="350147738"/>
    <trip id="veh112" type="veh_passenger" depart="228.39" departLane="best" from="-378237359#0" to="138203605"/>
    <trip id="veh113" type="veh_passenger" depart="230.43" departLane="best" from="26733892#1" to="-553323249#0"/>
    <trip id="veh114" type="veh_passenger" depart="232.47" departLane="best" from="-4811294" to="38020351"/>
    <trip id="veh115" type="veh_passenger" depart="234.51" departLane="best" from="-23032829#0" to="199665487#0"/>
    <trip id="veh116" type="veh_passenger" depart="236.54" departLane="best" from="-9515059#4" to="956612326"/>
    <trip id="veh117" type="veh_passenger" depart="238.58" departLane="best" from="-23032829#1" to="-386832703#0"/>
    <trip id="veh118" type="veh_passenger" depart="240.62" departLane="best" from="388285826" to="694012902#0"/>
    <trip id="veh119" type="veh_passenger" depart="242.66" departLane="best" from="488705428#1" to="5051407#2"/>
    <trip id="veh121" type="veh_passenger" depart="246.74" departLane="best" departSpeed="max" from="474485729" to="345736600"/>
    <trip id="veh123" type="veh_passenger" depart="250.82" departLane="best" from="26205357#0" to="10230452#7"/>
    <trip id="veh124" type="veh_passenger" depart="252.86" departLane="best" from="442274140" to="-553323248"/>
    <trip id="veh125" type="veh_passenger" depart="254.90" departLane="best" departSpeed="max" from="264621638" to="8080008#0"/>
    <trip id="veh126" type="veh_passenger" depart="256.94" departLane="best" departSpeed="max" from="-23316367" to="-23313215#2"/>
    <trip id="veh127" type="veh_passenger" depart="258.98" departLane="best" departSpeed="max" from="23184009#4" to="23192896#1"/>
    <trip id="veh128" type="veh_passenger" depart="261.01" departLane="best" from="-40817206#5" to="-24008852#3"/>
    <trip id="veh129" type="veh_passenger" depart="263.05" departLane="best" from="-345736605" to="-378237360"/>
    <trip id="veh131" type="veh_passenger" depart="267.13" departLane="best" from="178668745" to="611781710#1"/>
    <trip id="veh132" type="veh_passenger" depart="269.17" departLane="best" from="4807752#1" to="23093192#1"/>
    <trip id="veh133" type="veh_passenger" depart="271.21" departLane="best" from="-139468853" to="-4811453#1"/>
    <trip id="veh134" type="veh_passenger" depart="273.25" departLane="best" from="-10230452#6" to="-386832703#1"/>
    <trip id="veh136" type="veh_passenger" depart="277.33" departLane="best" from="37181838#0" to="23192896#0"/>
    <trip id="veh138" type="veh_passenger" depart="281.41" departLane="best" from="23032837#1" to="-521510809"/>
    <trip id="veh139" type="veh_passenger" depart="283.45" departLane="best" from="474485738" to="23316367"/>
    <trip id="veh140" type="veh_passenger" depart="285.48" departLane="best" from="-4807774#1" to="586684994#1"/>
    <trip id="veh141" type="veh_passenger" depart="287.52" departLane="best" from="-393019010#1" to="220151070#3"/>
    <trip id="veh142" type="veh_passenger" depart="289.56" departLane="best" from="54883366#1" to="383983719"/>
    <trip id="veh143" type="veh_passenger" depart="291.60" departLane="best" from="-383983719" to="-23184012"/>
    <trip id="veh144" type="veh_passenger" depart="293.64" departLane="best" from="-386832703#0" to="-537710741#2"/>
    <trip id="veh146" type="veh_passenger" depart="297.72" departLane="best" from="4807782#2" to="926867319"/>
    <trip id="veh147" type="veh_passenger" depart="299.76" departLane="best" from="423481788#1" to="-5108622#1"/>
    <trip id="veh148" type="veh_passenger" depart="301.80" departLane="best" from="-16361889#3" to="37721065#0"/>
    <trip id="veh149" type="veh_passenger" depart="303.84" departLane="best" from="54883366#0" to="694012899#1"/>
    <trip id="veh150" type="veh_passenger" depart="305.88" departLane="best" from="-40817206#2" to="4807840"/>
    <trip id="veh151" type="veh_passenger" depart="307.92" departLane="best" from="423481788#1" to="-4807759#2"/>
    <trip id="veh153" type="veh_passenger" depart="311.99" departLane="best" from="4811320#1" to="4807781#1"/>
    <trip id="veh154" type="veh_passenger" depart="314.03" departLane="best" from="-366030054#1" to="448974997#1"/>
    <trip id="veh156" type="veh_passenger" depart="318.11" departLane="best" from="39008607" to="393019010#1"/>
    <trip id="veh157" type="veh_passenger" depart="320.15" departLane="best" from="159822900#0" to="-37181837#2"/>
    <trip id="veh158" type="veh_passenger" depart="322.19" departLane="best" from="-54883017#0" to="4807840"/>
    <trip id="veh159" type="veh_passenger" depart="324.23" departLane="best" from="88457772#4" to="5051407#0"/>
    <trip id="veh160" type="veh_passenger" depart="326.27" departLane="best" from="24608218" to="138203612#2"/>
    <trip id="veh161" type="veh_passenger" depart="328.31" departLane="best" from="-139468854" to="23184008"/>
    <trip id="veh162" type="veh_passenger" depart="330.35" departLane="best" from="900882212" to="-341509728"/>
    <trip id="veh163" type="veh_passenger" depart="332.39" departLane="best" from="881678626#5" to="-4807755#0"/>
    <trip id="veh164" type="veh_passenger" depart="334.42" departLane="best" from="-23184012" to="169224407#0"/>
    <trip id="veh165" type="veh_passenger" depart="336.46" departLane="best" departSpeed="max" from="350217704#0" to="692537991#0"/>
    <trip id="veh166" type="veh_passenger" depart="338.50" departLane="best" from="-23313215#0" to="23093001"/>
    <trip id="veh168" type="veh_passenger" depart="342.58" departLane="best" departSpeed="max" from="-386851191#1" to="345748660#0"/>
    <trip id="veh169" type="veh_passenger" depart="344.62" departLane="best" from="10230452#3" to="692610318#1"/>
    <trip id="veh170" type="veh_passenger" depart="346.66" departLane="best" from="23032792#3" to="366030054#3"/>
    <trip id="veh171" type="veh_passenger" depart="348.70" departLane="best" from="37181838#1" to="290577631"/>
    <trip id="veh172" type="veh_passenger" depart="350.74" departLane="best" from="-88336156#1" to="-23032776#0"/>
    <trip id="veh173" type="veh_passenger" depart="352.78" departLane="best" from="-265450242" to="896339464"/>
    <trip id="veh174" type="veh_passenger" depart="354.82" departLane="best" from="-4807837#2" to="4807774#2"/>
    <trip id="veh175" type="veh_passenger" depart="356.86" departLane="best" from="345744158#0" to="-553323249#1"/>
    <trip id="veh176" type="veh_passenger" depart="358.89" departLane="best" departSpeed="max" from="-4807774#3" to="156260261"/>
    <trip id="veh177" type="veh_passenger" depart="360.93" departLane="best" from="10230452#3" to="-54883366#1"/>
    <trip id="veh178" type="veh_passenger" depart="362.97" departLane="best" from="-23312971#2" to="16361899#7"/>
    <trip id="veh179" type="veh_passenger" depart="365.01" departLane="best" from="694012903" to="30010699#0"/>
    <trip id="veh181" type="veh_passenger" depart="369.09" departLane="best" from="4807752#0" to="23184028#3"/>
    <trip id="veh182" type="veh_passenger" depart="371.13" departLane="best" from="10230452#1" to="-537710741#0"/>
    <trip id="veh183" type="veh_passenger" depart="373.17" departLane="best" from="11335855#0" to="23313215#1"/>
    <trip id="veh184" type="veh_passenger" depart="375.21" departLane="best" from="-26249170" to="220150010"/>
    <trip id="veh185" type="veh_passenger" depart="377.25" departLane="best" from="133487397" to="-386832703#1"/>
    <trip id="veh186" type="veh_passenger" depart="379.29" departLane="best" from="-393019010#1" to="30998723"/>
    <trip id="veh187" type="veh_passenger" depart="381.33" departLane="best" from="243216829" to="-911891325"/>
    <trip id="veh188" type="veh_passenger" depart="383.36" departLane="best" from="4811320#1" to="378237374#0"/>
    <trip id="veh190" type="veh_passenger" depart="387.44" departLane="best" from="-290577631" to="-124051723#2"/>
    <trip id="veh191" type="veh_passenger" depart="389.48" departLane="best" from="-378237361" to="22910598#0"/>
    <trip id="veh192" type="veh_passenger" depart="391.52" departLane="best" from="4807759#1" to="23032791#0"/>
    <trip id="veh193" type="veh_passenger" depart="393.56" departLane="best" from="10492736" to="25497562#1"/>
    <trip id="veh194" type="veh_passenger" depart="395.60" departLane="best" departSpeed="max" from="-28675674" to="345736584"/>
    <trip id="veh195" type="veh_passenger" depart="397.64" departLane="best" from="180784446#0" to="448974996#1"/>
    <trip id="veh196" type="veh_passenger" depart="399.68" departLane="best" from="26249173#0" to="-10230452#4"/>
    <trip id="veh197" type="veh_passenger" depart="401.72" departLane="best" departSpeed="max" from="-23184009#4" to="168355066#2"/>
    <trip id="veh198" type="veh_passenger" depart="403.76" departLane="best" from="-260983469#4" to="894722995"/>
    <trip id="veh200" type="veh_passenger" depart="407.83" departLane="best" from="-38361910" to="4807774#3"/>
    <trip id="veh201" type="veh_passenger" depart="409.87" departLane="best" from="156260255#3" to="423481788#1"/>
    <trip id="veh203" type="veh_passenger" depart="413.95" departLane="best" from="23312959#0" to="881678625#6"/>
    <trip id="veh204" type="veh_passenger" depart="415.99" departLane="best" departSpeed="max" from="537710741#0" to="243261557"/>
    <trip id="veh206" type="veh_passenger" depart="420.07" departLane="best" departSpeed="max" from="474485723" to="23184028#2"/>
    <trip id="veh207" type="veh_passenger" depart="422.11" departLane="best" from="-54883018#2" to="378237359#2"/>
    <trip id="veh208" type="veh_passenger" depart="424.15" departLane="best" from="169127821#4" to="-474485750#2"/>
    <trip id="veh210" type="veh_passenger" depart="428.23" departLane="best" from="383983724#0" to="23093184"/>
    <trip id="veh211" type="veh_passenger" depart="430.27" departLane="best" departSpeed="max" from="23736861#0" to="-4807880#1"/>
    <trip id="veh212" type="veh_passenger" depart="432.31" departLane="best" departSpeed="max" from="-23032845#2" to="-537710741#0"/>
    <trip id="veh213" type="veh_passenger" depart="434.34" departLane="best" from="40817206#3" to="-8812305#0"/>
    <trip id="veh214" type="veh_passenger" depart="436.38" departLane="best" from="23032828#1" to="24511285#2"/>
    <trip id="veh215" type="veh_passenger" depart="438.42" departLane="best" from="-37181837#4" to="345736571#1"/>
    <trip id="veh217" type="veh_passenger" depart="442.50" departLane="best" departSpeed="max" from="107757511" to="611781710#1"/>
    <trip id="veh218" type="veh_passenger" depart="444.54" departLane="best" from="23196349" to="345736580"/>
    <trip id="veh219" type="veh_passenger" depart="446.58" departLane="best" from="-9514888#2" to="-10230452#4"/>
    <trip id="veh220" type="veh_passenger" depart="448.62" departLane="best" from="-692537991#0" to="38361911#0"/>
    <trip id="veh221" type="veh_passenger" depart="450.66" departLane="best" from="4807772#1" to="881678626#5"/>
    <trip id="veh222" type="veh_passenger" depart="452.70" departLane="best" departSpeed="max" from="107757511" to="378237362#0"/>
    <trip id="veh223" type="veh_passenger" depart="454.74" departLane="best" from="23092999#2" to="-24008850#0"/>
    <trip id="veh224" type="veh_passenger" depart="456.78" departLane="best" from="-350217704#3" to="-387401254"/>
    <trip id="veh225" type="veh_passenger" depart="458.81" departLane="best" from="1157387454#1" to="146911735"/>
    <trip id="veh226" type="veh_passenger" depart="460.85" departLane="best" from="-553323248" to="303259049"/>
    <trip id="veh227" type="veh_passenger" depart="462.89" departLane="best" from="-10230452#6" to="29139497#2"/>
    <trip id="veh230" type="veh_passenger" depart="469.01" departLane="best" departSpeed="max" from="-956612326" to="23312960#0"/>
    <trip id="veh231" type="veh_passenger" depart="471.05" departLane="best" from="-16361899#0" to="26249173#3"/>
    <trip id="veh232" type="veh_passenger" depart="473.09" departLane="best" from="23320720#2" to="202572130"/>
    <trip id="veh233" type="veh_passenger" depart="475.13" departLane="best" from="-199665487#0" to="11335846#1"/>
    <trip id="veh234" type="veh_passenger" depart="477.17" departLane="best" from="-32197056#0" to="-881678625#8"/>
    <trip id="veh235" type="veh_passenger" depart="479.21" departLane="best" from="378237374#0" to="11335846#1"/>
    <trip id="veh236" type="veh_passenger" depart="481.25" departLane="best" from="-378237359#0" to="-4807752#0"/>
    <trip id="veh237" type="veh_passenger" depart="483.28" departLane="best" from="386832703#0" to="-23093006"/>
    <trip id="veh238" type="veh_passenger" depart="485.32" departLane="best" from="-135078205" to="23184018"/>
    <trip id="veh240" type="veh_passenger" depart="489.40" departLane="best" departSpeed="max" from="261543529" to="-387498728#0"/>
    <trip id="veh241" type="veh_passenger" depart="491.44" departLane="best" departSpeed="max" from="261543529" to="383945634#1"/>
    <trip id="veh242" type="veh_passenger" depart="493.48" departLane="best" from="823062060" to="378237359#1"/>
    <trip id="veh244" type="veh_passenger" depart="497.56" departLane="best" from="-23163762#0" to="-387296020"/>
    <trip id="veh245" type="veh_passenger" depart="499.60" departLane="best" from="-32197056#0" to="386832700"/>
    <trip id="veh247" type="veh_passenger" depart="503.68" departLane="best" from="37181839#2" to="23313209#1"/>
    <trip id="veh248" type="veh_passenger" depart="505.72" departLane="best" from="-448036755#0" to="903117233#2"/>
    <trip id="veh249" type="veh_passenger" depart="507.75" departLane="best" departSpeed="max" from="-23184009#4" to="135078202#0"/>
    <trip id="veh250" type="veh_passenger" depart="509.79" departLane="best" from="4807778#2" to="30010699#0"/>
    <trip id="veh251" type="veh_passenger" depart="511.83" departLane="best" from="881678625#5" to="138203607"/>
    <trip id="veh252" type="veh_passenger" depart="513.87" departLane="best" from="345736599" to="-23032828#2"/>
    <trip id="veh253" type="veh_passenger" depart="515.91" departLane="best" from="-970380576" to="247063363#0"/>
    <trip id="veh258" type="veh_passenger" depart="526.11" departLane="best" from="202572138" to="-937763472"/>
    <trip id="veh259" type="veh_passenger" depart="528.15" departLane="best" from="4807755#2" to="-474485745#2"/>
    <trip id="veh260" type="veh_passenger" depart="530.19" departLane="best" from="-23184009#1" to="896339463#1"/>
    <trip id="veh261" type="veh_passenger" depart="532.22" departLane="best" from="243261567" to="4807746#3"/>
    <trip id="veh262" type="veh_passenger" depart="534.26" departLane="best" from="345736580" to="169224407#2"/>
    <trip id="veh263" type="veh_passenger" depart="536.30" departLane="best" from="366030056#0" to="903117233#2"/>
    <trip id="veh264" type="veh_passenger" depart="538.34" departLane="best" from="40817206#1" to="442274140"/>
    <trip id="veh265" type="veh_passenger" depart="540.38" departLane="best" from="23032792#2" to="23032787#4"/>
    <trip id="veh266" type="veh_passenger" depart="542.42" departLane="best" from="1157387454#1" to="37181838#4"/>
    <trip id="veh267" type="veh_passenger" depart="544.46" departLane="best" from="-400653107#0" to="4807778#1"/>
    <trip id="veh268" type="veh_passenger" depart="546.50" departLane="best" departSpeed="max" from="474485723" to="-23093186"/>
    <trip id="veh269" type="veh_passenger" depart="548.54" departLane="best" from="5047080#0" to="448974996#0"/>
    <trip id="veh270" type="veh_passenger" depart="550.58" departLane="best" from="-16361899#4" to="243261557"/>
    <trip id="veh271" type="veh_passenger" depart="552.62" departLane="best" from="-94166194#1" to="-146911733"/>
    <trip id="veh272" type="veh_passenger" depart="554.66" departLane="best" from="4807761" to="345736606"/>
    <trip id="veh273" type="veh_passenger" depart="556.69" departLane="best" from="-32197056#1" to="423481774#1"/>
    <trip id="veh274" type="veh_passenger" depart="558.73" departLane="best" departSpeed="max" from="-56255592" to="5051407#3"/>
    <trip id="veh275" type="veh_passenger" depart="560.77" departLane="best" from="32297993#0" to="-4811453#1"/>
    <trip id="veh276" type="veh_passenger" depart="562.81" departLane="best" from="-23093009" to="366030055#3"/>
    <trip id="veh277" type="veh_passenger" depart="564.85" departLane="best" from="178668745" to="383983724#0"/>
    <trip id="veh278" type="veh_passenger" depart="566.89" departLane="best" from="-970380576" to="54883366#2"/>