<?xml version="1.0" encoding="UTF-8"?>

<!-- generated on 2023-05-01 16:57:53 by Eclipse SUMO netconvert Version 1.16.0
<configuration xmlns:xsi="http://www.w3.org/2001/XMLSchema-instance" xsi:noNamespaceSchemaLocation="http://sumo.dlr.de/xsd/netconvertConfiguration.xsd">

    <input>
        <type-files value="${SUMO_HOME}/data/typemap/osmNetconvert.typ.xml,${SUMO_HOME}/data/typemap/osmNetconvertUrbanDe.typ.xml,${SUMO_HOME}/data/typemap/osmNetconvertPedestrians.typ.xml,${SUMO_HOME}/data/typemap/osmNetconvertAerialway.typ.xml"/>
        <osm-files value="osm_bbox.osm.xml.gz"/>
    </input>

    <output>
        <output-file value="osm.net.xml.gz"/>
        <output.street-names value="true"/>
        <output.original-names value="true"/>
        <ptstop-output value="osm_stops.add.xml"/>
        <ptline-output value="osm_ptlines.xml"/>
    </output>

    <projection>
        <proj.utm value="true"/>
    </projection>

    <processing>
        <geometry.remove value="true"/>
        <roundabouts.guess value="true"/>
    </processing>

    <tls_building>
        <tls.discard-simple value="true"/>
        <tls.join value="true"/>
        <tls.guess-signals value="true"/>
        <tls.default-type value="actuated"/>
    </tls_building>

    <ramp_guessing>
        <ramps.guess value="true"/>
    </ramp_guessing>

    <junctions>
        <junctions.join value="true"/>
        <junctions.corner-detail value="5"/>
    </junctions>

    <pedestrian>
        <crossings.guess value="true"/>
    </pedestrian>

    <railway>
        <railway.topology.repair value="true"/>
    </railway>

    <formats>
        <osm.sidewalks value="true"/>
    </formats>

</configuration>
-->

<additional xmlns:xsi="http://www.w3.org/2001/XMLSchema-instance" xsi:noNamespaceSchemaLocation="http://sumo.dlr.de/xsd/additional_file.xsd">
    <busStop id="-1187477995" name="Altbach" lane="-180784454#2_0" startPos="100.50" endPos="300.50" friendlyPos="true"/>
    <busStop id="-1187534664" name="Oberesslingen" lane="-180784454#0_0" startPos="88.46" endPos="288.46" friendlyPos="true"/>
    <busStop id="-1187534737" name="Oberesslingen" lane="-180784448#1_0" startPos="95.10" endPos="295.10" friendlyPos="true"/>
    <busStop id="-1187584519" name="Esslingen (Neckar)" lane="-156199092#0_0" startPos="126.12" endPos="326.12" friendlyPos="true">
        <access lane="303780045_0" pos="0.00" length="17.98" friendlyPos="1"/>
        <access lane="303780047_0" pos="0.00" length="17.02" friendlyPos="1"/>
        <access lane="303780069#0_0" pos="0.00" length="15.54" friendlyPos="1"/>
        <access lane="303780071#0_0" pos="0.54" length="18.57" friendlyPos="1"/>
        <access lane="303780071#1_0" pos="3.69" length="11.08" friendlyPos="1"/>
    </busStop>
    <busStop id="-1187584571" name="Esslingen (Neckar)" lane="-454381994#0_0" startPos="96.28" endPos="296.28" friendlyPos="true">
        <access lane="1035471373_0" pos="37.22" length="24.78" friendlyPos="1"/>
        <access lane="303780041_0" pos="6.47" length="28.07" friendlyPos="1"/>
        <access lane="303780045_0" pos="0.00" length="25.71" friendlyPos="1"/>
        <access lane="303780069#0_0" pos="0.20" length="25.06" friendlyPos="1"/>
        <access lane="303780069#1_0" pos="2.60" length="22.38" friendlyPos="1"/>
    </busStop>
    <busStop id="-1254192526" name="Pliensauturm" lane="-350217704#3_0" startPos="0.00" endPos="15.00" friendlyPos="true" lines="114">
        <access lane="-693946724_0" pos="0.00" length="14.60" friendlyPos="1"/>
        <access lane="-693946725#0_0" pos="0.00" length="14.31" friendlyPos="1"/>
        <access lane="397833659_0" pos="87.74" length="18.86" friendlyPos="1"/>
        <access lane="693946722#1_0" pos="11.38" length="6.73" friendlyPos="1"/>
        <access lane="693946725#0_0" pos="0.20" length="17.07" friendlyPos="1"/>
    </busStop>
    <busStop id="-248493258" name="Pfeifferklinge" lane="-432904401_1" startPos="56.42" endPos="71.42" friendlyPos="true" lines="122 131 130"/>
    <busStop id="-2626499005" name="Charlottenplatz" lane="-4807837#1_0" startPos="5.66" endPos="20.66" friendlyPos="true" lines="114 106 140">
        <access lane="-23320721_0" pos="37.04" length="47.68" friendlyPos="1"/>
        <access lane="-32133766_0" pos="58.32" length="29.86" friendlyPos="1"/>
        <access lane="23320721_0" pos="3.33" length="39.88" friendlyPos="1"/>
        <access lane="32133766_0" pos="0.00" length="25.11" friendlyPos="1"/>
        <access lane="38027017_0" pos="14.90" length="69.46" friendlyPos="1"/>
    </busStop>
    <busStop id="-263337141" name="Esslingen (Neckar)" lane="-156199093#0_0" startPos="93.73" endPos="293.73" friendlyPos="true">
        <access lane="303780041_0" pos="6.47" length="17.00" friendlyPos="1"/>
        <access lane="303780045_0" pos="0.00" length="14.68" friendlyPos="1"/>
        <access lane="303780069#0_0" pos="0.00" length="12.57" friendlyPos="1"/>
        <access lane="303780069#1_0" pos="0.00" length="15.41" friendlyPos="1"/>
        <access lane="303780071#1_0" pos="3.69" length="15.23" friendlyPos="1"/>
    </busStop>
    <busStop id="-263337147" name="Oberesslingen" lane="-123444522#4_0" startPos="87.27" endPos="287.27" friendlyPos="true"/>
    <busStop id="-2648044989" name="Schelztor" lane="-442274138_1" startPos="0.00" endPos="9.50" friendlyPos="true" lines="109"/>
    <busStop id="-2661523902" name="Esslingen (Neckar)" lane="-102848475#0_0" startPos="478.83" endPos="678.83" friendlyPos="true">
        <access lane="303780035_0" pos="0.00" length="10.42" friendlyPos="1"/>
        <access lane="303780042_0" pos="6.66" length="10.74" friendlyPos="1"/>
        <access lane="303780056_0" pos="0.86" length="16.35" friendlyPos="1"/>
        <access lane="303780061#0_0" pos="0.11" length="14.03" friendlyPos="1"/>
        <access lane="303780061#1_0" pos="3.41" length="1.68" friendlyPos="1"/>
    </busStop>
    <busStop id="-2789521448" name="Hochschulzentrum" lane="-16361899#7_1" startPos="218.74" endPos="233.74" friendlyPos="true"/>
    <busStop id="-2789521449" name="Hochschulzentrum" lane="-16361899#7_1" startPos="235.12" endPos="250.12" friendlyPos="true"/>
    <busStop id="-3068304222" name="Altbach" lane="-123444522#1_0" startPos="207.83" endPos="407.83" friendlyPos="true"/>
    <busStop id="-3081546121" name="Esslingen-Mettingen" lane="-85959749#1_0" startPos="143.33" endPos="343.33" friendlyPos="true">
        <access lane="-125007811_0" pos="0.00" length="218.80" friendlyPos="1"/>
        <access lane="-125007833_0" pos="0.00" length="277.79" friendlyPos="1"/>
        <access lane="-448974997#1_0" pos="1.79" length="200.26" friendlyPos="1"/>
        <access lane="125007811_0" pos="13.53" length="220.02" friendlyPos="1"/>
        <access lane="448974997#1_0" pos="75.00" length="212.86" friendlyPos="1"/>
    </busStop>
    <busStop id="-3082151227" name="Esslingen-Zell" lane="-180784454#2_0" startPos="1934.84" endPos="2134.84" friendlyPos="true"/>
    <busStop id="-3082162048" name="Esslingen-Zell" lane="-123444522#2_0" startPos="415.78" endPos="615.78" friendlyPos="true"/>
    <busStop id="-3082162052" name="Esslingen-Zell" lane="-180784448#3_0" startPos="452.72" endPos="652.72" friendlyPos="true"/>
    <busStop id="-3082162066" name="Esslingen-Zell" lane="-248760538#1_0" startPos="417.56" endPos="617.56" friendlyPos="true"/>
    <busStop id="-30911797" name="Oberesslingen" lane="-248760538#3_0" startPos="94.26" endPos="294.26" friendlyPos="true"/>
    <busStop id="-3222963807" name="Esslingen-Mettingen" lane="-85959750#1_0" startPos="87.07" endPos="287.07" friendlyPos="true">
        <access lane="-448974997#1_0" pos="0.00" length="214.02" friendlyPos="1"/>
        <access lane="448974997#1_0" pos="76.79" length="225.57" friendlyPos="1"/>
    </busStop>
    <busStop id="-3566577209" name="Esslingen (N) ZOB" lane="-392441930_0" startPos="38.03" endPos="53.03" friendlyPos="true" lines="122 105 110"/>
    <busStop id="-3566577210" name="Esslingen (N) ZOB" lane="-386500268#0_0" startPos="0.00" endPos="15.00" friendlyPos="true" lines="108"/>
    <busStop id="-3872480827" name="Burgunderstraße" lane="-388285827#0_1" startPos="27.27" endPos="42.27" friendlyPos="true" lines="101 115"/>
    <busStop id="-3872841423" name="Eberhard-Bauer-Stadion" lane="-37721066#1_1" startPos="44.41" endPos="59.41" friendlyPos="true" lines="102 103"/>
    <busStop id="-3872841443" name="Pliensauturm" lane="-350217704#2_0" startPos="45.44" endPos="60.44" friendlyPos="true" lines="131 140 130 N22">
        <access lane="-4807836#0_0" pos="0.00" length="18.92" friendlyPos="1"/>
        <access lane="23205593#0_0" pos="98.99" length="23.47" friendlyPos="1"/>
        <access lane="26738309_0" pos="16.56" length="29.93" friendlyPos="1"/>
        <access lane="4807836#0_0" pos="8.92" length="17.10" friendlyPos="1"/>
        <access lane="693946722#0_0" pos="6.32" length="6.86" friendlyPos="1"/>
    </busStop>
    <busStop id="-3872841444" name="Schelztor" lane="-386832703#0_1" startPos="0.00" endPos="0.20" friendlyPos="true" lines="108 122 105 110"/>
    <busStop id="-3904477589" name="Sulzgrieser Steige" lane="-956612326_1" startPos="26.99" endPos="41.99" friendlyPos="true" lines="109"/>
    <busStop id="-496276886" name="Reutlinger Straße" lane="-23439978#5_1" startPos="73.12" endPos="88.12" friendlyPos="true" lines="102 103"/>
    <busStop id="-6501810816" name="Esslingen (N) ZOB" lane="-386500268#0_0" startPos="29.65" endPos="44.65" friendlyPos="true" lines="109"/>
    <busStop id="-6515317538" name="Pliensauturm" lane="-350217704#3_0" startPos="1.39" endPos="16.39" friendlyPos="true" lines="111 112 113">
        <access lane="-693946724_0" pos="0.00" length="18.92" friendlyPos="1"/>
        <access lane="-693946725#0_0" pos="0.00" length="19.15" friendlyPos="1"/>
        <access lane="-957481220#1_0" pos="98.68" length="20.99" friendlyPos="1"/>
        <access lane="693946722#1_0" pos="7.58" length="6.79" friendlyPos="1"/>
        <access lane="693946725#0_0" pos="0.20" length="22.06" friendlyPos="1"/>
    </busStop>
    <busStop id="-6515317595" name="Pliensauturm" lane="-350217704#2_0" startPos="0.00" endPos="15.00" friendlyPos="true" lines="114 106 104">
        <access lane="-693946724_0" pos="1.40" length="45.82" friendlyPos="1"/>
        <access lane="-957481220#1_0" pos="98.68" length="17.27" friendlyPos="1"/>
        <access lane="693946722#0_0" pos="58.17" length="6.94" friendlyPos="1"/>
        <access lane="693946722#1_0" pos="0.00" length="19.06" friendlyPos="1"/>
        <access lane="957481220#1_0" pos="0.00" length="13.42" friendlyPos="1"/>
    </busStop>
    <busStop id="-89023451" name="Oberer Eisbergweg" lane="-139468853_1" startPos="14.68" endPos="29.68" friendlyPos="true" lines="113 119 120"/>
    <busStop id="1037937586" name="Panorama-Klinik" lane="169127813#4_0" startPos="90.63" endPos="105.63" friendlyPos="true">
        <access lane="449240479#1_0" pos="99.27" length="139.62" friendlyPos="1"/>
        <access lane="449241019_0" pos="6.25" length="150.12" friendlyPos="1"/>
        <access lane="449241023#1_0" pos="0.20" length="150.90" friendlyPos="1"/>
        <access lane="449241026_0" pos="97.77" length="5.71" friendlyPos="1"/>
        <access lane="449241028_0" pos="98.74" length="4.89" friendlyPos="1"/>
    </busStop>
    <busStop id="1104997093" name="Katharinenstaffel" lane="8812305#1_0" startPos="0.00" endPos="0.20" friendlyPos="true">
        <access lane="449240479#0_0" pos="0.00" length="13.11" friendlyPos="1"/>
        <access lane="449240482#1_0" pos="0.20" length="13.82" friendlyPos="1"/>
        <access lane="449240482#2_0" pos="0.00" length="14.88" friendlyPos="1"/>
        <access lane="449240483#0_0" pos="0.20" length="8.94" friendlyPos="1"/>
        <access lane="449240483#1_0" pos="0.00" length="11.92" friendlyPos="1"/>
    </busStop>
    <busStop id="1187477995" name="Altbach" lane="180784454#2_0" startPos="2102.56" endPos="2302.56" friendlyPos="true" lines="S1"/>
    <busStop id="1187534664" name="Oberesslingen" lane="292876199#4_0" startPos="1319.25" endPos="1519.25" friendlyPos="true" lines="S1"/>
    <busStop id="1187534737" name="Oberesslingen" lane="180784448#1_0" startPos="896.73" endPos="1096.73" friendlyPos="true"/>
    <busStop id="1187584519" name="Esslingen (Neckar)" lane="102807168#2_0" startPos="428.56" endPos="628.56" friendlyPos="true">
        <access lane="303780045_0" pos="0.00" length="17.98" friendlyPos="1"/>
        <access lane="303780047_0" pos="0.00" length="17.02" friendlyPos="1"/>
        <access lane="303780069#0_0" pos="0.00" length="15.54" friendlyPos="1"/>
        <access lane="303780071#0_0" pos="0.54" length="18.57" friendlyPos="1"/>
        <access lane="303780071#1_0" pos="3.69" length="11.08" friendlyPos="1"/>
    </busStop>
    <busStop id="1187584571" name="Esslingen (Neckar)" lane="102848495#4_0" startPos="91.36" endPos="291.36" friendlyPos="true" lines="S1">
        <access lane="1035471373_0" pos="37.22" length="24.78" friendlyPos="1"/>
        <access lane="303780041_0" pos="6.47" length="28.07" friendlyPos="1"/>
        <access lane="303780045_0" pos="0.00" length="25.71" friendlyPos="1"/>
        <access lane="303780069#0_0" pos="0.20" length="25.06" friendlyPos="1"/>
        <access lane="303780069#1_0" pos="2.60" length="22.38" friendlyPos="1"/>
    </busStop>
    <busStop id="1187584623" name="Esslingen (Neckar)" lane="156199090_0" startPos="20.11" endPos="220.11" friendlyPos="true">
        <access lane="303780047_0" pos="0.00" length="17.43" friendlyPos="1"/>
        <access lane="303780061#1_0" pos="3.41" length="21.00" friendlyPos="1"/>
        <access lane="303780063_0" pos="6.61" length="19.57" friendlyPos="1"/>
        <access lane="303780071#0_0" pos="0.00" length="13.86" friendlyPos="1"/>
        <access lane="303780071#1_0" pos="0.00" length="18.18" friendlyPos="1"/>
    </busStop>
    <busStop id="1219607437" name="Charlottenplatz" lane="4807837#2_0" startPos="11.54" endPos="26.54" friendlyPos="true">
        <access lane="-32133766_0" pos="58.32" length="34.62" friendlyPos="1"/>
        <access lane="-38027017_0" pos="0.00" length="50.78" friendlyPos="1"/>
        <access lane="-611781711_0" pos="19.69" length="47.93" friendlyPos="1"/>
        <access lane="32133766_0" pos="0.00" length="39.14" friendlyPos="1"/>
        <access lane="611781711_0" pos="0.00" length="45.54" friendlyPos="1"/>
    </busStop>
    <busStop id="1219607507" name="Merkel&apos;sches Bad" lane="54883018#1_0" startPos="22.26" endPos="37.26" friendlyPos="true">
        <access lane="693946705_0" pos="29.83" length="8.51" friendlyPos="1"/>
        <access lane="693946713#3_0" pos="29.20" length="51.08" friendlyPos="1"/>
        <access lane="693946714#0_0" pos="0.20" length="49.55" friendlyPos="1"/>
        <access lane="693946714#1_0" pos="0.00" length="49.24" friendlyPos="1"/>
        <access lane="693946714#2_0" pos="0.00" length="49.44" friendlyPos="1"/>
    </busStop>
    <busStop id="1219607572" name="Merkel&apos;sches Bad" lane="387401256#1_0" startPos="0.00" endPos="15.00" friendlyPos="true" lines="114">
        <access lane="-22910604#1_0" pos="23.67" length="57.15" friendlyPos="1"/>
        <access lane="-290577631_0" pos="0.00" length="33.99" friendlyPos="1"/>
        <access lane="290577631_0" pos="51.96" length="32.65" friendlyPos="1"/>
        <access lane="693946711#1_0" pos="27.18" length="22.89" friendlyPos="1"/>
        <access lane="694075475#0_0" pos="4.12" length="8.78" friendlyPos="1"/>
    </busStop>
    <busStop id="125392606" name="Panorama-Klinik" lane="169127813#4_0" startPos="295.29" endPos="310.29" friendlyPos="true">
        <access lane="203186203_0" pos="59.12" length="82.10" friendlyPos="1"/>
        <access lane="449240479#1_0" pos="303.53" length="107.26" friendlyPos="1"/>
        <access lane="449241026_0" pos="302.40" length="5.13" friendlyPos="1"/>
        <access lane="449241028_0" pos="303.40" length="4.54" friendlyPos="1"/>
        <access lane="449241824#1_0" pos="50.25" length="77.71" friendlyPos="1"/>
    </busStop>
    <busStop id="125392608" name="Burg" lane="537710741#3_1" startPos="36.21" endPos="51.21" friendlyPos="true" lines="110 112"/>
    <busStop id="1911101330" name="Weilstraße" lane="22910600_0" startPos="0.00" endPos="15.00" friendlyPos="true"/>
    <busStop id="245016532" name="Schillerplatz" lane="24511285#2_1" startPos="5.77" endPos="20.77" friendlyPos="true"/>
    <busStop id="248493257" name="Pfeifferklinge" lane="432904401_1" startPos="60.90" endPos="75.90" friendlyPos="true"/>
    <busStop id="2611247039" name="Ebershaldenfriedhof" lane="23439978#1_0" startPos="0.41" endPos="15.41" friendlyPos="true">
        <access lane="-23439978#0_0" pos="0.00" length="18.23" friendlyPos="1"/>
        <access lane="-23439978#1_0" pos="22.13" length="6.30" friendlyPos="1"/>
        <access lane="-366030055#3_0" pos="0.00" length="31.86" friendlyPos="1"/>
        <access lane="366030059#5_0" pos="15.66" length="17.53" friendlyPos="1"/>
        <access lane="366030061_0" pos="30.61" length="29.15" friendlyPos="1"/>
    </busStop>
    <busStop id="2626499005" name="Charlottenplatz" lane="4807837#1_0" startPos="16.49" endPos="31.49" friendlyPos="true" lines="114">
        <access lane="-23320721_0" pos="37.04" length="47.68" friendlyPos="1"/>
        <access lane="-32133766_0" pos="58.32" length="29.86" friendlyPos="1"/>
        <access lane="23320721_0" pos="3.33" length="39.88" friendlyPos="1"/>
        <access lane="32133766_0" pos="0.00" length="25.11" friendlyPos="1"/>
        <access lane="38027017_0" pos="14.90" length="69.46" friendlyPos="1"/>
    </busStop>
    <busStop id="263337141" name="Esslingen (Neckar)" lane="445470518_0" startPos="65.37" endPos="265.37" friendlyPos="true" lines="S1">
        <access lane="303780041_0" pos="6.47" length="17.00" friendlyPos="1"/>
        <access lane="303780045_0" pos="0.00" length="14.68" friendlyPos="1"/>
        <access lane="303780069#0_0" pos="0.00" length="12.57" friendlyPos="1"/>
        <access lane="303780069#1_0" pos="0.00" length="15.41" friendlyPos="1"/>
        <access lane="303780071#1_0" pos="3.69" length="15.23" friendlyPos="1"/>
    </busStop>
    <busStop id="263337147" name="Oberesslingen" lane="123444522#4_0" startPos="845.08" endPos="1045.08" friendlyPos="true" lines="S1"/>
    <busStop id="2637351415" name="Hochschule" lane="220151070#0_0" startPos="51.72" endPos="66.72" friendlyPos="true">
        <access lane="23184032_0" pos="96.14" length="42.23" friendlyPos="1"/>
        <access lane="246387835#0_0" pos="0.00" length="53.99" friendlyPos="1"/>
        <access lane="246387835#1_0" pos="0.00" length="59.51" friendlyPos="1"/>
        <access lane="95158562#0_0" pos="16.44" length="49.08" friendlyPos="1"/>
        <access lane="95158562#1_0" pos="0.00" length="58.61" friendlyPos="1"/>
    </busStop>
    <busStop id="2649951212" name="Schlachthausbrücke" lane="37181839#1_1" startPos="0.00" endPos="7.09" friendlyPos="true"/>
    <busStop id="2661523902" name="Esslingen (Neckar)" lane="156199094#3_0" startPos="71.17" endPos="271.17" friendlyPos="true" lines="RE 5">
        <access lane="303780035_0" pos="0.00" length="10.42" friendlyPos="1"/>
        <access lane="303780042_0" pos="6.66" length="10.74" friendlyPos="1"/>
        <access lane="303780056_0" pos="0.86" length="16.35" friendlyPos="1"/>
        <access lane="303780061#0_0" pos="0.11" length="14.03" friendlyPos="1"/>
        <access lane="303780061#1_0" pos="3.41" length="1.68" friendlyPos="1"/>
    </busStop>
    <busStop id="2711169196" name="Im Holder" lane="686955221_1" startPos="23.28" endPos="38.28" friendlyPos="true" lines="119 120 118 N19"/>
    <busStop id="2739052081" name="Esslingen (N) ZOB" lane="384972991#1_0" startPos="14.52" endPos="29.52" friendlyPos="true" lines="114 106 120 N22"/>
    <busStop id="27413254" name="Katharinenstaffel" lane="787951054_0" startPos="364.82" endPos="379.82" friendlyPos="true">
        <access lane="169127800_0" pos="0.00" length="12.19" friendlyPos="1"/>
        <access lane="169127863_0" pos="0.00" length="12.03" friendlyPos="1"/>
        <access lane="449240478_0" pos="0.20" length="8.84" friendlyPos="1"/>
        <access lane="449240479#0_0" pos="4.53" length="7.66" friendlyPos="1"/>
        <access lane="449240479#1_0" pos="0.00" length="7.27" friendlyPos="1"/>
    </busStop>
    <busStop id="27413262" name="Hochschule" lane="4807784#1_0" startPos="71.05" endPos="86.05" friendlyPos="true">
        <access lane="-89891461#0_0" pos="20.60" length="37.68" friendlyPos="1"/>
        <access lane="246387835#0_0" pos="0.00" length="61.29" friendlyPos="1"/>
        <access lane="89891461#0_0" pos="0.00" length="33.73" friendlyPos="1"/>
        <access lane="95158562#0_0" pos="34.50" length="65.06" friendlyPos="1"/>
        <access lane="95158562#1_0" pos="10.07" length="57.99" friendlyPos="1"/>
    </busStop>
    <busStop id="27413881" name="Finanzamt" lane="4807782#2_0" startPos="0.00" endPos="15.00" friendlyPos="true">
        <access lane="-366030056#2_0" pos="0.00" length="38.28" friendlyPos="1"/>
        <access lane="1083283317_0" pos="1.36" length="9.33" friendlyPos="1"/>
        <access lane="291431512_0" pos="16.05" length="67.68" friendlyPos="1"/>
        <access lane="366030056#1_0" pos="123.06" length="26.31" friendlyPos="1"/>
        <access lane="366030065#2_0" pos="105.64" length="77.73" friendlyPos="1"/>
    </busStop>
    <busStop id="3068304222" name="Altbach" lane="123444522#1_0" startPos="83.87" endPos="283.87" friendlyPos="true" lines="S1"/>
    <busStop id="3076074768" name="Eberhard-Bauer-Straße" lane="26205357#1_0" startPos="29.50" endPos="44.50" friendlyPos="true">
        <access lane="23032788#1_0" pos="0.00" length="57.66" friendlyPos="1"/>
        <access lane="692610312_0" pos="0.00" length="15.33" friendlyPos="1"/>
        <access lane="692610313#0_0" pos="34.48" length="8.24" friendlyPos="1"/>
        <access lane="692610313#1_0" pos="0.00" length="16.07" friendlyPos="1"/>
        <access lane="692610322#1_0" pos="0.20" length="59.40" friendlyPos="1"/>
    </busStop>
    <busStop id="3076074980" name="Eberhard-Bauer-Straße" lane="387498727#0_0" startPos="99.41" endPos="114.41" friendlyPos="true">
        <access lane="-387498727#0_0" pos="29.01" length="7.05" friendlyPos="1"/>
        <access lane="-692610319_0" pos="0.00" length="7.50" friendlyPos="1"/>
        <access lane="692610319_0" pos="15.09" length="10.46" friendlyPos="1"/>
        <access lane="692610320_0" pos="0.00" length="9.33" friendlyPos="1"/>
        <access lane="692610321_0" pos="34.31" length="29.87" friendlyPos="1"/>
    </busStop>
    <busStop id="3081546121" name="Esslingen-Mettingen" lane="85959749#1_0" startPos="251.53" endPos="451.53" friendlyPos="true">
        <access lane="-125007811_0" pos="0.00" length="218.80" friendlyPos="1"/>
        <access lane="-125007833_0" pos="0.00" length="277.79" friendlyPos="1"/>
        <access lane="-448974997#1_0" pos="1.79" length="200.26" friendlyPos="1"/>
        <access lane="125007811_0" pos="13.53" length="220.02" friendlyPos="1"/>
        <access lane="448974997#1_0" pos="75.00" length="212.86" friendlyPos="1"/>
    </busStop>
    <busStop id="3081931423" name="Esslingen (Neckar)" lane="102841944#0_0" startPos="0.00" endPos="200.00" friendlyPos="true">
        <access lane="303780035_0" pos="0.20" length="8.33" friendlyPos="1"/>
        <access lane="303780042_0" pos="4.73" length="6.87" friendlyPos="1"/>
        <access lane="303780056_0" pos="0.86" length="9.88" friendlyPos="1"/>
        <access lane="303780061#0_0" pos="0.00" length="6.83" friendlyPos="1"/>
        <access lane="303780090#2_0" pos="1.90" length="12.30" friendlyPos="1"/>
    </busStop>
    <busStop id="3082151227" name="Esslingen-Zell" lane="180784454#2_0" startPos="268.22" endPos="468.22" friendlyPos="true" lines="S1"/>
    <busStop id="3082162048" name="Esslingen-Zell" lane="123444522#2_0" startPos="1438.21" endPos="1638.21" friendlyPos="true" lines="S1"/>
    <busStop id="3082162052" name="Esslingen-Zell" lane="180784448#3_0" startPos="266.64" endPos="466.64" friendlyPos="true"/>
    <busStop id="3082162066" name="Esslingen-Zell" lane="248760538#1_0" startPos="448.70" endPos="648.70" friendlyPos="true"/>
    <busStop id="30863641" name="Maille" lane="1157387454#1_0" startPos="29.81" endPos="44.81" friendlyPos="true">
        <access lane="-22910604#3_0" pos="14.79" length="29.92" friendlyPos="1"/>
        <access lane="-22910605_0" pos="77.15" length="56.70" friendlyPos="1"/>
        <access lane="-24621688_0" pos="31.84" length="51.90" friendlyPos="1"/>
        <access lane="22910604#3_0" pos="77.57" length="32.92" friendlyPos="1"/>
        <access lane="258676355_0" pos="0.00" length="60.75" friendlyPos="1"/>
    </busStop>
    <busStop id="30911797" name="Oberesslingen" lane="248760538#3_0" startPos="835.33" endPos="1035.33" friendlyPos="true"/>
    <busStop id="3222963807" name="Esslingen-Mettingen" lane="85959750#1_0" startPos="314.12" endPos="514.12" friendlyPos="true" lines="S1">
        <access lane="-448974997#1_0" pos="0.00" length="214.02" friendlyPos="1"/>
        <access lane="448974997#1_0" pos="76.79" length="225.57" friendlyPos="1"/>
    </busStop>
    <busStop id="3224629436" name="Esslingen (N) ZOB" lane="675777502_1" startPos="0.00" endPos="15.00" friendlyPos="true" lines="131 118 113 130"/>
    <busStop id="3523843331" name="Weilstraße" lane="11335855#1_1" startPos="14.90" endPos="29.90" friendlyPos="true"/>
    <busStop id="3566577204" name="Esslingen (N) ZOB" lane="146911733_0" startPos="17.20" endPos="32.20" friendlyPos="true">
        <access lane="234015061#0_0" pos="0.00" length="13.91" friendlyPos="1"/>
        <access lane="268558821#1_0" pos="17.40" length="19.59" friendlyPos="1"/>
        <access lane="268558823#1_0" pos="17.24" length="30.28" friendlyPos="1"/>
        <access lane="332193969#2_0" pos="0.42" length="38.70" friendlyPos="1"/>
        <access lane="332193969#3_0" pos="1.79" length="32.08" friendlyPos="1"/>
    </busStop>
    <busStop id="3566577205" name="Esslingen (N) ZOB" lane="268558821#1_0" startPos="11.60" endPos="26.60" friendlyPos="true" lines="140 X20"/>
    <busStop id="3566577206" name="Esslingen (N) ZOB" lane="268558823#1_0" startPos="11.76" endPos="26.76" friendlyPos="true" lines="119 112 N19"/>
    <busStop id="3566577208" name="Esslingen (N) ZOB" lane="386500268#1_0" startPos="37.94" endPos="52.94" friendlyPos="true" lines="104"/>
    <busStop id="3872480823" name="Alte Schiffahrt" lane="383945635#1_0" startPos="91.27" endPos="106.27" friendlyPos="true">
        <access lane="-125007831_0" pos="0.00" length="45.92" friendlyPos="1"/>
        <access lane="-125007833_0" pos="81.91" length="12.46" friendlyPos="1"/>
        <access lane="125007831_0" pos="68.91" length="47.55" friendlyPos="1"/>
        <access lane="125007833_0" pos="0.00" length="8.07" friendlyPos="1"/>
        <access lane="947626768_0" pos="0.00" length="70.78" friendlyPos="1"/>
    </busStop>
    <busStop id="3872480825" name="Burgunderstraße" lane="388285827#0_1" startPos="15.84" endPos="30.84" friendlyPos="true"/>
    <busStop id="3872841420" name="Cannstatter Straße" lane="896339463#1_0" startPos="45.53" endPos="60.53" friendlyPos="true">
        <access lane="-290461461_0" pos="0.00" length="53.08" friendlyPos="1"/>
        <access lane="121495767#2_0" pos="0.00" length="118.10" friendlyPos="1"/>
        <access lane="290461460_0" pos="67.36" length="47.82" friendlyPos="1"/>
        <access lane="290461461_0" pos="47.48" length="57.80" friendlyPos="1"/>
        <access lane="438289427#1_0" pos="126.13" length="117.88" friendlyPos="1"/>
    </busStop>
    <busStop id="3872841422" name="Eberhard-Bauer-Stadion" lane="37721066#0_1" startPos="49.85" endPos="64.85" friendlyPos="true"/>
    <busStop id="3872841424" name="Ebershaldenfriedhof" lane="169224407#2_1" startPos="25.20" endPos="40.20" friendlyPos="true"/>
    <busStop id="3872841432" name="Karl-Pfaff-Straße" lane="383945634#1_1" startPos="6.51" endPos="21.51" friendlyPos="true"/>
    <busStop id="3872841434" name="Marktplatz" lane="386832700_1" startPos="2.61" endPos="17.61" friendlyPos="true"/>
    <busStop id="3872841438" name="Maille" lane="138203611#1_0" startPos="45.01" endPos="60.01" friendlyPos="true">
        <access lane="-22910604#3_0" pos="17.81" length="55.05" friendlyPos="1"/>
        <access lane="169218510#0_0" pos="0.00" length="45.17" friendlyPos="1"/>
        <access lane="22910603#3_0" pos="34.20" length="69.29" friendlyPos="1"/>
        <access lane="22910604#3_0" pos="74.56" length="58.05" friendlyPos="1"/>
        <access lane="258676355_0" pos="0.00" length="46.02" friendlyPos="1"/>
    </busStop>
    <busStop id="3872841439" name="Neckar Forum" lane="694012896_0" startPos="20.80" endPos="35.80" friendlyPos="true"/>
    <busStop id="3872841440" name="Neckar Forum" lane="29139497#0_0" startPos="3.79" endPos="18.79" friendlyPos="true">
        <access lane="32197056#0_0" pos="0.00" length="40.52" friendlyPos="1"/>
        <access lane="32197056#1_0" pos="0.00" length="41.81" friendlyPos="1"/>
        <access lane="694012877#1_0" pos="24.46" length="11.90" friendlyPos="1"/>
        <access lane="694012883#0_0" pos="0.00" length="35.60" friendlyPos="1"/>
        <access lane="694012883#1_0" pos="0.00" length="34.96" friendlyPos="1"/>
    </busStop>
    <busStop id="3872841442" name="Parkstraße" lane="23032829#1_1" startPos="14.85" endPos="29.85" friendlyPos="true"/>
    <busStop id="3872841446" name="Stuttgarter Straße" lane="169097419#1_0" startPos="0.00" endPos="15.00" friendlyPos="true">
        <access lane="-586684993#2_0" pos="55.41" length="13.16" friendlyPos="1"/>
        <access lane="586684993#2_0" pos="4.71" length="10.16" friendlyPos="1"/>
        <access lane="692610290_0" pos="3.51" length="18.75" friendlyPos="1"/>