<?xml version="1.0" encoding="UTF-8"?>

<!-- generated on 2023-05-01 16:57:57.510656 by osmWebWizard.py v1_16_0+0000-94ec4c6cd72
  options: 
-->

<routes xmlns:xsi="http://www.w3.org/2001/XMLSchema-instance" xsi:noNamespaceSchemaLocation="http://sumo.dlr.de/xsd/routes_file.xsd">
    <vType id="pt_bus" vClass="bus"/>
    <vType id="pt_tram" vClass="tram"/>
    <vType id="pt_train" vClass="rail"/>
    <vType id="pt_subway" vClass="rail_urban"/>
    <vType id="pt_light_rail" vClass="rail_urban"/>
    <vType id="pt_monorail" vClass="rail_urban"/>
    <vType id="pt_trolleybus" vClass="bus"/>
    <vType id="pt_minibus" vClass="bus"/>
    <vType id="pt_share_taxi" vClass="taxi"/>
    <vType id="pt_aerialway" vClass="rail_urban" length="2.5" width="2" personCapacity="4"/>
    <vType id="pt_ferry" vClass="ship"/>
    <route id="pt_bus_111:1" color="255,181,48" edges="23471056#1" >
        <stop busStop="3904767704" duration="20" until="46.0"/> <!-- Herrenwiesenweg -->
    </route>
    <route id="pt_train_RE_5:0" edges="248760538#0 248760538#1 248760538#2 248760538#3 248760538#4 180784434#1 156199094#1 156199094#2 156199094#3 102848475#1 102848507#0 102848507#1 460942121#0 460942121#1 25423242#1 85959749#1" >
        <stop busStop="2661523902" duration="20" until="273.0"/> <!-- Esslingen (Neckar) -->
    </route>
    <route id="pt_bus_108:0" color="104,102,181" edges="-386500268#0 316354387#0 316354387#1 -135078201 -386832703#1 -386832703#0 -442274138 -442274132 -169220423 378237356 442274136 442274140 29138343#0 29138343#1 488705428#0 488705428#1 488705428#2 29138344 202572138 -23320738#2 -23320738#1 -23320738#0 -29139497#2 562273438 23329044 694012882 694012897#0 694012897#1 29139496 386831073 694012900#0 694012900#1 694012881 694012904 -386831074 -386831075 -8812305#1 -8812305#0" >
        <stop busStop="-3566577210" duration="20" until="34.0"/> <!-- Esslingen (N) ZOB -->
        <stop busStop="-3872841444" duration="20" until="195.0"/> <!-- Schelztor -->
    </route>
    <route id="pt_bus_119:0" color="0,101,183" edges="268558823#1 -146911733 -468914851 4811517 345748663 26738365#0 26738365#1 265461450 423481774#1 220150010 10492736 345736590 345736580 180667064#0 345736584 265461444#0 692610294 1157387458 345736587#0 345736587#1 30998717#0 11335846#1 926867325 345736604 926867324 265461454 926867322 23182939 265450242 345736606 686955221 926867319 345736600 345736602 345736605 926867315 1079724463 926867314" >
        <stop busStop="3566577206" duration="20" until="38.0"/> <!-- Esslingen (N) ZOB -->
        <stop busStop="3933810892" duration="20" until="214.0"/> <!-- Weilstraße -->
        <stop busStop="2711169196" duration="20" until="299.0"/> <!-- Im Holder -->
    </route>
    <route id="pt_bus_109:0" color="93,203,177" edges="-386500268#0 316354387#0 316354387#1 -135078201 -386832703#1 -386832703#0 -442274138 -442274132 -169220423 378237356 442274136 442274140 29138343#0 29138343#1 488705428#0 488705428#1 488705428#2 -442274142 -159822900#0 -410089906 592426952 199665487#0 199665487#1 1035471353 956612326" >
        <stop busStop="-6501810816" duration="20" until="41.0"/> <!-- Esslingen (N) ZOB -->
        <stop busStop="-2648044989" duration="20" until="157.0"/> <!-- Schelztor -->
    </route>
    <route id="pt_bus_114:0" color="187,148,184" edges="384972991#1 -350217704#3 -350217704#2 -350217704#1 -350217704#0 109592895 17097227 290577629#0 290577631 387401256#1 178668744 178668743 54883018#1 54883018#2 54883018#3 4807837#0 4807837#1 4807837#2 275526211 -4811453#5 -4811453#4 -4811453#3 -4811453#2 -4811453#1" >
        <stop busStop="2739052081" duration="20" until="38.0"/> <!-- Esslingen (N) ZOB -->
        <stop busStop="-1254192526" duration="20" until="371.0"/> <!-- Pliensauturm -->
        <stop busStop="1219607572" duration="20" until="455.0"/> <!-- Merkel'sches Bad -->
        <stop busStop="2626499005" duration="20" until="599.0"/> <!-- Charlottenplatz -->
    </route>
    <route id="pt_bus_109:1" color="93,203,177" edges="-956612326 -1035471353 -199665487#1 -199665487#0 -592426952 766727735 159822900#0 159822900#1 94166210#0 94166210#1 386832700 386832701#0 386832701#1 442274134 386832702 -378237356 -23316466 442274132 442274138 386832703#0 386832703#1 135078201 -283413806 -316354387#0 156260258 -386500268#0" >
        <stop busStop="-3904477589" duration="20" until="40.0"/> <!-- Sulzgrieser Steige -->
    </route>
    <route id="pt_train_S1:0" color="92,142,60" edges="292876203 102807136#1 102807136#2 102848495#1 102848495#2 102848495#3 102848495#4 454381994#1 292876199#0 292876199#1 292876199#2 292876199#3 292876199#4 180784454#1 180784454#2 180784454#3" >
        <stop busStop="1187584571" duration="20" until="164.0"/> <!-- Esslingen (Neckar) -->
        <stop busStop="1187534664" duration="20" until="338.0"/> <!-- Oberesslingen -->
        <stop busStop="3082151227" duration="20" until="522.0"/> <!-- Esslingen-Zell -->
        <stop busStop="1187477995" duration="20" until="684.0"/> <!-- Altbach -->
    </route>
    <route id="pt_bus_131:0" color="248,60,90" edges="675777502 -350217704#2 -350217704#1 -350217704#0 109592895 17097227 290577629#0 1157387454#0 1157387454#1 138203609#0 138203610 387155262 156260255#0 156260255#1 156260255#2 156260255#3 138203607 4807840 23205593#0 26738365#0 26738365#1 265461450 423481774#1 220150010 10492736 345736590 345736580 180667064#0 345736584 265461444#0 692610294 1157387458 345736587#0 345736587#1 30998717#0 -30998716#1 23032776#0 432904401 448036755#0 448036755#1 -264621638" >
        <stop busStop="3224629436" duration="20" until="35.0"/> <!-- Esslingen (N) ZOB -->
        <stop busStop="-3872841443" duration="20" until="385.0"/> <!-- Pliensauturm -->
    </route>
    <route id="pt_bus_122:0" color="200,185,123" edges="-392441930 -386500268#0 316354387#0 316354387#1 -135078201 -386832703#1 -386832703#0 -442274138 -442274132 -169220423 378237356 -378237356 -23316466 442274132 442274138 386832703#0 386832703#1 135078201 -283413806 -316354387#0 -105914659#1 -675777502 -316354392 -146911733 -468914851 4811517 345748663 26738365#0 26738365#1 265461450 423481774#1 220150010 10492736 345736590 345736580 180667064#0 345736584 265461444#0 692610294 1157387458 345736587#0 345736587#1 30998717#0 -30998716#1 23032776#0 432904401 448036755#0 448036755#1 -264621638" >
        <stop busStop="-3566577209" duration="20" until="44.0"/> <!-- Esslingen (N) ZOB -->
        <stop busStop="-3872841444" duration="20" until="227.0"/> <!-- Schelztor -->
    </route>
    <route id="pt_bus_102:0" color="227,207,59" edges="-23439978#5 -40817206#7 -40817206#5 -40817206#3 -40817206#2 4811453#4 4811453#5 -275526211 -4807837#2 -4807837#1 -4807837#0 -54883018#3 -54883018#2 -54883018#1 -178668743 -202630135 -387401256#1 -290577631 1157387454#0 1157387454#1 138203609#0 138203610 387155262 156260255#0 156260255#1 156260255#2 156260255#3 138203607 4807840 23205593#0 26738365#0 26738365#1 265461450 423481774#1 220150010 10492736 345736590 345736580 180667064#0 345736584 180667066#0 180667070 387401266 -692610297 -900882212 -169097419#1 -900882211#1 -900882210 -111177314#4 -111177314#2 -111177314#1 -111177314#0 -911891312 -687182914#2 -687182914#1 -687182914#0 692610318#1 911891324 911891320 23093000#1 911891319#1 692610317#1 692610317#2 383945640 169096205 -387498727#1 -387498727#0 -387498728#3 -387498728#2 -387498728#1 -387498728#0 -17096022 9054644 978314929 37721065#0 37721065#1 37721066#0 37721066#1" >
        <stop busStop="-496276886" duration="20" until="46.0"/> <!-- Reutlinger Straße -->
    </route>
    <route id="pt_bus_104:0" color="211,157,112" edges="386500268#1 -350217704#2 -350217704#1 -350217704#0 109592895 17097227 290577629#0 290577631 387401256#1 178668744 178668743 -189364993#0 24511285#1 24511285#2 390216943 -24302935 -474485720 -24008850#0 -474485721 -24008852#3 -24008852#2 -24008852#0 -474485722 -474485723" >
        <stop busStop="3566577208" duration="20" until="43.0"/> <!-- Esslingen (N) ZOB -->
        <stop busStop="-6515317595" duration="20" until="378.0"/> <!-- Pliensauturm -->
    </route>
    <route id="pt_trolleybus_101:1" color="255,46,29" edges="-448974997#1 -448974997#0 -30010699#1 -30010699#0 -448974996#1 -448974996#0 -388285827#0 -135078205 -23163758 -896339464 146908199#1 146908199#2 -387401261 -378237359#6 -378237359#5 -378237359#4 -378237359#3 -378237359#2 -378237359#1 -378237359#0 -692537991#0 -692537992 -378237361 -135078202#1 378237373#1 378237374#0 -378237372#1 -4807752#0 -937763472 -823062060 -990451065 -400653105 -400653106 -675777502 -316354392 -146911733 -468914851 -939228251 -911970185 -911970184 -31787956 -1157387457 182055214 1157387448 1157387451#0 290577631 387401256#1 178668744 178668743 54883018#1 54883018#2 54883018#3 4807837#0 4807837#1 4807837#2 275526211 -4811453#5 -4811453#4 -4811453#3 -4811453#2 -4811453#1" >
        <stop busStop="-3872480827" duration="20" until="108.0"/> <!-- Burgunderstraße -->
    </route>
    <route id="pt_bus_102:2" color="227,207,59" edges="-37721066#1 -37721066#0 -37721065#1 -37721065#0 -978314929 -9054644 17096022 387498728#0 387498728#1 387498728#2 387498728#3 387498727#0 387498727#1 17096023 383945639 383945640 23032789#0 23032789#1 10698330#0 10698330#1 10698330#2 10698330#4 911891312 111177314#0 111177314#1 111177314#2 111177314#4 900882210 900882211#1 169097419#1 900882212 692610297 180667072#0 180667072#1 345748660#0 692610295 169097422 265461443 345736597 345736596 423481788#0 423481788#1 220150011#0 220150011#1 423481777 265461451 23205595 350147738 10492734#0 10492734#1 138203605 138203604#0 387155260#0 387155260#1 220151070#0 220151070#1 220151070#3 4807782#0 4807782#2 -4807778#5 -4807778#4 -4807778#3 -4807778#2 -4807778#1 -4807778#0 366030058#0 366030058#1 366030058#2 366030058#3 40817206#7 23439978#5" >
        <stop busStop="-3872841423" duration="20" until="43.0"/> <!-- Eberhard-Bauer-Stadion -->
    </route>
    <route id="pt_bus_102:1" color="227,207,59" edges="-23439978#5 -40817206#7 -40817206#5 -40817206#3 -40817206#2 4811453#4 4811453#5 -275526211 -4807837#2 -4807837#1 -4807837#0 -54883018#3 -54883018#2 -54883018#1 -178668743 -202630135 -387401256#1 -290577631 1157387454#0 1157387454#1 138203609#0 138203610 387155262 156260255#0 156260255#1 156260255#2 156260255#3 138203607 4807840 23205593#0 26738365#0 26738365#1 265461450 423481774#1 220150010 10492736 345736590 345736580 180667064#0 345736584 180667066#0 180667070 387401266 -692610297 -900882212 -169097419#1 -900882211#1 -900882210 -111177314#4 -111177314#2 -111177314#1 -111177314#0 -911891312 -687182914#2 -687182914#1 -687182914#0 692610318#1 911891324 911891320 23093000#1 911891319#1 692610317#1 692610317#2 383945640 169096205 -387498727#1 -387498727#0 -387498728#3 -387498728#2 -387498728#1 -387498728#0 -17096022 9054644 978314929 37721065#0 37721065#1 37721066#0 37721066#1" >
        <stop busStop="-496276886" duration="20" until="77.0"/> <!-- Reutlinger Straße -->
    </route>
    <route id="pt_bus_102:4" color="227,207,59" edges="-23439978#5 -40817206#7 -40817206#5 -40817206#3 -40817206#2 4811453#4 4811453#5 -275526211 -4807837#2 -4807837#1 -4807837#0 -54883018#3 -54883018#2 -54883018#1 -178668743 -202630135 -387401256#1 -290577631 1157387454#0 1157387454#1 138203609#0 138203610 387155262 156260255#0 156260255#1 156260255#2 156260255#3 138203607 4807840 23205593#0 26738365#0 26738365#1 265461450 423481774#1 220150010 10492736 345736590 345736580 180667064#0 345736584 180667066#0 180667070 387401266 -692610297 -900882212 -169097419#1 -900882211#1 -900882210 -111177314#4 -111177314#2 -111177314#1 -111177314#0 -911891312 -687182914#2 -687182914#1 -687182914#0 692610318#1 911891324 911891320 23093000#1 911891319#1 692610317#1 692610317#2 383945640 169096205 -387498727#1 -387498727#0 -387498728#3 -387498728#2 -387498728#1 -387498728#0 -17096022 9054644 978314929 37721065#0 37721065#1 37721066#0 37721066#1" >
        <stop busStop="-496276886" duration="20" until="109.0"/> <!-- Reutlinger Straße -->
    </route>
    <route id="pt_bus_114:2" color="187,148,184" edges="384972991#1 -350217704#2 -350217704#1 -350217704#0 109592895 17097227 290577629#0 290577631 387401256#1 178668744 178668743 54883018#1 54883018#2 54883018#3 4807837#0 4807837#1 4807837#2 275526211 -4811453#5 -4811453#4 -4811453#3 -4811453#2 -4811453#1" >
        <stop busStop="2739052081" duration="20" until="363.0"/> <!-- Esslingen (N) ZOB -->
        <stop busStop="-6515317595" duration="20" until="696.0"/> <!-- Pliensauturm -->
    </route>
    <route id="pt_train_S1:1" color="92,142,60" edges="123444522#0 123444522#1 123444522#2 123444522#3 123444522#4 123444522#5 180784432#1 180784439#1 180784439#2 180784439#3 180784439#4 180784439#5 180784439#6 180784439#7 445470518 156199093#1 102841941 -102848495#2 -102848495#1 102841943 156199093#3 460942119#0 460942119#1 286146962#1 286146962#2 284659686#1 85959750#1" >
        <stop busStop="3068304222" duration="20" until="107.0"/> <!-- Altbach -->
        <stop busStop="3082162048" duration="20" until="269.0"/> <!-- Esslingen-Zell -->
        <stop busStop="263337147" duration="20" until="453.0"/> <!-- Oberesslingen -->
        <stop busStop="263337141" duration="20" until="627.0"/> <!-- Esslingen (Neckar) -->
        <stop busStop="3222963807" duration="20" until="799.0"/> <!-- Esslingen-Mettingen -->
    </route>
    <route id="pt_bus_103:1" color="135,74,10" edges="-23439978#5 -40817206#7 -40817206#5 -40817206#3 -40817206#2 4811453#4 4811453#5 -275526211 -4807837#2 -4807837#1 -4807837#0 -54883018#3 -54883018#2 -54883018#1 -178668743 -202630135 -387401256#1 -290577631 1157387454#0 1157387454#1 138203609#0 138203610 387155262 156260255#0 156260255#1 156260255#2 156260255#3 138203607 4807840 23205593#0 26738365#0 26738365#1 265461450 423481774#1 220150010 10492736 345736590 345736580 180667064#0 345736584 180667066#0 180667070 387401266 -692610297 -900882212 -169097419#1 -900882211#1 -900882210 -111177314#4 -111177314#2 -111177314#1 -111177314#0 -911891312 -687182914#2 -687182914#1 -687182914#0 692610318#1 911891324 911891320 23093000#1 911891319#1 692610317#1 692610317#2 383945640 169096205 -387498727#1 -387498727#0 -387498728#3 -387498728#2 -387498728#1 -387498728#0 -17096022 9054644 978314929 37721065#0 37721065#1 37721066#0 37721066#1" >
        <stop busStop="-496276886" duration="20" until="159.0"/> <!-- Reutlinger Straße -->
    </route>
    <route id="pt_bus_111:0" color="255,181,48" edges="-386500268#0 -350217704#3 -350217704#2 -350217704#1 -350217704#0 109592895 17097227 290577629#0 1157387454#0 1157387454#1 138203609#0 138203610 17096027#0 17096027#1 17096027#2 220151070#0 220151070#1 220151070#3 4807782#0 4807782#2 4807780#1 4807780#2 169224406#0 169224406#1 694012890 694012889 694012904 -386831074 -386831075 -8812305#1 -8812305#0" >
        <stop busStop="-3566577210" duration="20" until="34.0"/> <!-- Esslingen (N) ZOB -->
        <stop busStop="-6515317538" duration="20" until="384.0"/> <!-- Pliensauturm -->
    </route>
    <route id="pt_bus_103:0" color="135,74,10" edges="-23439978#5 -40817206#7 -40817206#5 -40817206#3 -40817206#2 4811453#4 4811453#5 -275526211 -4807837#2 -4807837#1 -4807837#0 -54883018#3 -54883018#2 -54883018#1 -178668743 -202630135 -387401256#1 -290577631 1157387454#0 1157387454#1 138203609#0 138203610 387155262 156260255#0 156260255#1 156260255#2 156260255#3 138203607 4807840 23205593#0 26738365#0 26738365#1 265461450 423481774#1 220150010 10492736 345736590 345736580 180667064#0 345736584 180667066#0 180667070 387401266 -692610297 -900882212 -169097419#1 -900882211#1 -900882210 -111177314#4 -111177314#2 -111177314#1 -111177314#0 -911891312 -687182914#2 -687182914#1 -687182914#0 692610318#1 911891324 911891320 23093000#1 911891319#1 692610317#1 692610317#2 383945640 169096205 -387498727#1 -387498727#0 -387498728#3 -387498728#2 -387498728#1 -387498728#0 -17096022 9054644 978314929 37721065#0 37721065#1 37721066#0 37721066#1" >
        <stop busStop="-496276886" duration="20" until="127.0"/> <!-- Reutlinger Straße -->
    </route>
    <route id="pt_bus_103:2" color="135,74,10" edges="-23439978#5 -40817206#7 -40817206#5 -40817206#3 -40817206#2 4811453#4 4811453#5 -275526211 -4807837#2 -4807837#1 -4807837#0 -54883018#3 -54883018#2 -54883018#1 -178668743 -202630135 -387401256#1 -290577631 1157387454#0 1157387454#1 138203609#0 138203610 387155262 156260255#0 156260255#1 156260255#2 156260255#3 138203607 4807840 23205593#0 26738365#0 26738365#1 265461450 423481774#1 220150010 10492736 345736590 345736580 180667064#0 345736584 180667066#0 180667070 387401266 -692610297 -900882212 -169097419#1 -900882211#1 -900882210 -111177314#4 -111177314#2 -111177314#1 -111177314#0 -911891312 -687182914#2 -687182914#1 -687182914#0 692610318#1 911891324 911891320 23093000#1 911891319#1 692610317#1 692610317#2 383945640 169096205 -387498727#1 -387498727#0 -387498728#3 -387498728#2 -387498728#1 -387498728#0 -17096022 9054644 978314929 37721065#0 37721065#1 37721066#0 37721066#1" >
        <stop busStop="-496276886" duration="20" until="191.0"/> <!-- Reutlinger Straße -->
    </route>
    <route id="pt_bus_114:1" color="187,148,184" edges="4811453#0 4811453#2 4811453#3 4811453#4 4811453#5 -275526211 -4807837#2 -4807837#1 -4807837#0 -54883018#3 -54883018#2 -54883018#1 -178668743 -202630135 -387401256#1 -290577631 163737798 1157387449#0 1157387449#1 1157387455 1157387457 31787956 911970184 911970185 939228251 178668745 -332292229 -384972985 -384972984 384972991#0 384972991#1" >
        <stop busStop="-2626499005" duration="20" until="94.0"/> <!-- Charlottenplatz -->
    </route>
    <route id="pt_bus_102:5" color="227,207,59" edges="-37721066#1 -37721066#0 -37721065#1 -37721065#0 -978314929 -9054644 17096022 387498728#0 387498728#1 387498728#2 387498728#3 387498727#0 387498727#1 17096023 383945639 383945640 23032789#0 23032789#1 10698330#0 10698330#1 10698330#2 10698330#4 911891312 111177314#0 111177314#1 111177314#2 111177314#4 900882210 900882211#1 169097419#1 900882212 692610297 180667072#0 180667072#1 345748660#0 692610295 169097422 265461443 345736597 345736596 423481788#0 423481788#1 220150011#0 220150011#1 423481777 265461451 23205595 350147738 10492734#0 10492734#1 138203605 138203604#0 387155260#0 387155260#1 220151070#0 220151070#1 220151070#3 4807782#0 4807782#2 -4807778#5 -4807778#4 -4807778#3 -4807778#2 -4807778#1 -4807778#0 366030058#0 366030058#1 366030058#2 366030058#3 40817206#7 23439978#5" >
        <stop busStop="-3872841423" duration="20" until="93.0"/> <!-- Eberhard-Bauer-Stadion -->
    </route>
    <route id="pt_bus_104:2" color="211,157,112" edges="474485723 474485722 24008852#0 24008852#2 24008852#3 474485721 24008850#0 474485720 24302935 -390216943 -24511285#2 -24511285#1 189364993#0 -178668743 -202630135 -387401256#1 -290577631 163737798 1157387449#0 1157387449#1 1157387455 1157387457 31787956 911970184 911970185 939228251 178668745 -332292229 -384972985 -384972984 -233802788 -392441930 386500268#1" >
        <stop busStop="4684341514" duration="20" until="58.0"/> <!-- Neckarfreibad -->
    </route>
    <route id="pt_bus_112:0" color="128,198,234" edges="268558823#1 -350217704#3 -350217704#2 -350217704#1 -350217704#0 109592895 17097227 290577629#0 1157387454#0 1157387454#1 138203609#0 138203610 17096027#0 17096027#1 17096027#2 220151070#0 220151070#1 220151070#3 4807782#0 4807782#2 4807780#1 4807780#2 169224406#0 169224406#1 694012890 694012889 694012904 -386831074 -386831075 -8812305#1 -8812305#0" >
        <stop busStop="3566577206" duration="20" until="38.0"/> <!-- Esslingen (N) ZOB -->
    </route>
    <route id="pt_bus_122:1" color="200,185,123" edges="264621638 -448036755#1 -448036755#0 -432904401 -23032776#0 30998716#0 11335855#0 11335855#1 265461445#0 169097422 265461443 345736597 345736596 423481788#0 423481788#1 220150011#0 220150011#1 423481777 265461451 23205595 350147738 10492734#0 10492734#1 17096026 156260261 138203611#0 138203611#1 163737798 1157387449#0 1157387449#1 1157387455 1157387457 31787956 911970184 911970185 939228251 178668745 -332292229 -384972985 -384972984 -233802788 -392441930" >
        <stop busStop="-248493258" duration="20" until="99.0"/> <!-- Pfeifferklinge -->
    </route>
    <route id="pt_bus_104:3" color="211,157,112" edges="474485723 474485722 24008852#0 24008852#2 24008852#3 474485721 24008850#0 474485720 24302935 -390216943 -24511285#2 -24511285#1 189364993#0 -178668743 -202630135 -387401256#1 -290577631 163737798 1157387449#0 1157387449#1 1157387455 1157387457 31787956 911970184 911970185 939228251 178668745 -332292229 -384972985 -384972984 -233802788 -392441930 386500268#1" >
        <stop busStop="4684341514" duration="20" until="70.0"/> <!-- Neckarfreibad -->
    </route>
    <route id="pt_bus_102:3" color="227,207,59" edges="-37721066#1 -37721066#0 -37721065#1 -37721065#0 -978314929 -9054644 17096022 387498728#0 387498728#1 387498728#2 387498728#3 387498727#0 387498727#1 17096023 383945639 383945640 23032789#0 23032789#1 10698330#0 10698330#1 10698330#2 10698330#4 911891312 111177314#0 111177314#1 111177314#2 111177314#4 900882210 900882211#1 169097419#1 900882212 692610297 180667072#0 180667072#1 345748660#0 692610295 169097422 265461443 345736597 345736596 423481788#0 423481788#1 220150011#0 220150011#1 423481777 265461451 23205595 350147738 10492734#0 10492734#1 138203605 138203604#0 387155260#0 387155260#1 220151070#0 220151070#1 220151070#3 4807782#0 4807782#2 -4807778#5 -4807778#4 -4807778#3 -4807778#2 -4807778#1 -4807778#0 366030058#0 366030058#1 366030058#2 366030058#3 40817206#7 23439978#5" >
        <stop busStop="-3872841423" duration="20" until="74.0"/> <!-- Eberhard-Bauer-Stadion -->
    </route>
    <route id="pt_bus_103:4" color="135,74,10" edges="-37721066#1 -37721066#0 -37721065#1 -37721065#0 -978314929 -9054644 17096022 387498728#0 387498728#1 387498728#2 387498728#3 387498727#0 387498727#1 17096023 383945639 383945640 23032789#0 23032789#1 10698330#0 10698330#1 10698330#2 10698330#4 911891312 111177314#0 111177314#1 111177314#2 111177314#4 900882210 900882211#1 169097419#1 900882212 692610297 180667072#0 180667072#1 345748660#0 692610295 169097422 265461443 345736597 345736596 423481788#0 423481788#1 220150011#0 220150011#1 423481777 265461451 23205595 350147738 10492734#0 10492734#1 138203605 138203604#0 387155260#0 387155260#1 220151070#0 220151070#1 220151070#3 4807782#0 4807782#2 -4807778#5 -4807778#4 -4807778#3 -4807778#2 -4807778#1 -4807778#0 366030058#0 366030058#1 366030058#2 366030058#3 40817206#7 23439978#5" >
        <stop busStop="-3872841423" duration="20" until="122.0"/> <!-- Eberhard-Bauer-Stadion -->
    </route>
    <route id="pt_bus_113:1" color="24,197,244" edges="675777502 -350217704#3 -350217704#2 -350217704#1 -350217704#0 109592895 17097227 290577629#0 290577631 387401256#1 178668744 178668743 -189364993#0 24511285#1 24511285#2 390216943 -24302935 -474485720 -24008850#0 -474485721 -24008852#3 -24008852#2 -24008852#0 -474485722 -474485723" >
        <stop busStop="3224629436" duration="20" until="35.0"/> <!-- Esslingen (N) ZOB -->
        <stop busStop="-6515317538" duration="20" until="382.0"/> <!-- Pliensauturm -->
    </route>
    <route id="pt_trolleybus_101:0" color="255,46,29" edges="4811453#0 4811453#2 4811453#3 4811453#4 4811453#5 -275526211 -4807837#2 -4807837#1 -4807837#0 -54883018#3 -54883018#2 -54883018#1 -178668743 -202630135 -387401256#1 -290577631 163737798 1157387449#0 1157387449#1 1157387455 1157387457 31787956 911970184 911970185 939228251 178668745 146911733 316354392 675777502 400653106 400653105 990451065 823062060 937763472 4807752#0 4807752#1 39008607 378237367 135078202#0 378237361 692537992 692537991#0 378237359#0 378237359#1 378237359#2 378237359#3 378237359#4 378237359#5 378237359#6 387401261 896339465 383983724#0 896339464 23163758 135078205 388285827#0 448974996#0 448974996#1 30010699#0 30010699#1 448974997#0 448974997#1" >
        <stop busStop="3876394647" duration="20" until="44.0"/> <!-- Bismarckstraße -->
    </route>
    <route id="pt_bus_140:0" color="254,160,186" edges="268558821#1 -350217704#2 -350217704#1 -350217704#0 109592895 17097227 290577629#0 290577631 387401256#1 178668744 178668743 54883018#1 54883018#2 54883018#3 4807837#0 4807837#1 4807837#2 275526211 -4811453#5 -4811453#4 -4811453#3 -4811453#2 -4811453#1" >
        <stop busStop="3566577205" duration="20" until="38.0"/> <!-- Esslingen (N) ZOB -->
        <stop busStop="-3872841443" duration="20" until="377.0"/> <!-- Pliensauturm -->
    </route>
    <route id="pt_bus_103:5" color="135,74,10" edges="-37721066#1 -37721066#0 -37721065#1 -37721065#0 -978314929 -9054644 17096022 387498728#0 387498728#1 387498728#2 387498728#3 387498727#0 387498727#1 17096023 383945639 383945640 23032789#0 23032789#1 10698330#0 10698330#1 10698330#2 10698330#4 911891312 111177314#0 111177314#1 111177314#2 111177314#4 900882210 900882211#1 169097419#1 900882212 692610297 180667072#0 180667072#1 345748660#0 692610295 169097422 265461443 345736597 345736596 423481788#0 423481788#1 220150011#0 220150011#1 423481777 265461451 23205595 350147738 10492734#0 10492734#1 138203605 138203604#0 387155260#0 387155260#1 220151070#0 220151070#1 220151070#3 4807782#0 4807782#2 -4807778#5 -4807778#4 -4807778#3 -4807778#2 -4807778#1 -4807778#0 366030058#0 366030058#1 366030058#2 366030058#3 40817206#7 23439978#5" >
        <stop busStop="-3872841423" duration="20" until="143.0"/> <!-- Eberhard-Bauer-Stadion -->
    </route>
    <route id="pt_bus_103:3" color="135,74,10" edges="-37721066#1 -37721066#0 -37721065#1 -37721065#0 -978314929 -9054644 17096022 387498728#0 387498728#1 387498728#2 387498728#3 387498727#0 387498727#1 17096023 383945639 383945640 23032789#0 23032789#1 10698330#0 10698330#1 10698330#2 10698330#4 911891312 111177314#0 111177314#1 111177314#2 111177314#4 900882210 900882211#1 169097419#1 900882212 692610297 180667072#0 180667072#1 345748660#0 692610295 169097422 265461443 345736597 345736596 423481788#0 423481788#1 220150011#0 220150011#1 423481777 265461451 23205595 350147738 10492734#0 10492734#1 138203605 138203604#0 387155260#0 387155260#1 220151070#0 220151070#1 220151070#3 4807782#0 4807782#2 -4807778#5 -4807778#4 -4807778#3 -4807778#2 -4807778#1 -4807778#0 366030058#0 366030058#1 366030058#2 366030058#3 40817206#7 23439978#5" >
        <stop busStop="-3872841423" duration="20" until="90.0"/> <!-- Eberhard-Bauer-Stadion -->
    </route>
    <route id="pt_bus_113:0" color="24,197,244" edges="675777502 -350217704#3 -350217704#2 -350217704#1 -350217704#0 109592895 17097227 290577629#0 1157387454#0 1157387454#1 138203609#0 138203610 387155262 156260255#0 156260255#1 156260255#2 156260255#3 138203607 4807840 23205593#0 26738365#0 26738365#1 265461450 423481774#1 220150010 10492736 345736590 345736580 180667064#0 345736584 265461444#0 692610294 1157387458 345736587#0 345736587#1 30998717#0 11335846#1 926867325 345736604 926867324 265461454 926867322 23182939 265450242 345736606 686955221 926867319 345736600 345736602 345736605 926867315 1079724463 926867314" >
        <stop busStop="3224629436" duration="20" until="34.0"/> <!-- Esslingen (N) ZOB -->
    </route>
    <route id="pt_bus_104:1" color="211,157,112" edges="386500268#1 -350217704#2 -350217704#1 -350217704#0 109592895 17097227 290577629#0 290577631 387401256#1 178668744 178668743 -189364993#0 24511285#1 24511285#2 390216943 -24302935 -474485720 -24008850#0 -474485721 -24008852#3 -24008852#2 -24008852#0 -474485722 -474485723" >
        <stop busStop="3566577208" duration="20" until="375.0"/> <!-- Esslingen (N) ZOB -->
        <stop busStop="-6515317595" duration="20" until="708.0"/> <!-- Pliensauturm -->
    </route>
    <route id="pt_bus_X20:1" color="0,191,243" edges="268558821#1 -146911733 -468914851 -939228251 -911970185 -911970184 -31787956 -1157387457 182055214 1157387448 1157387451#0 1157387454#0 1157387454#1 138203609#0 138203610 17096027#0 17096027#1 17096027#2 220151070#0 220151070#1 220151070#3 4807782#0 4807782#2 4807780#1 4807780#2 169224406#0 169224406#1 694012890 694012889 694012904 -386831074 -386831075 -8812305#1 -8812305#0" >
        <stop busStop="3566577205" duration="20" until="37.0"/> <!-- Esslingen (N) ZOB -->
    </route>
    <route id="pt_trolleybus_118:0" color="193,98,53" edges="-926867318 -686955221 -345736606 -265450242 -23182939 -926867322 -265461454 345736599 1157387459#0 11335855#0 11335855#1 265461445#0 169097422 265461443 345736597 345736596 423481788#0 423481788#1 220150011#0 220150011#1 423481777 265461451 23205595 350147738 10492734#0 10492734#1 17096026 156260261 138203611#0 138203611#1 163737798 1157387449#0 1157387449#1 1157387455 1157387457 31787956 911970184 911970185 939228251 178668745 146911733 316354392 675777502 -675777502 -316354392 -146911733 -468914851 4811517 345748663 26738365#0 26738365#1 265461450 423481774#1 220150010 10492736 345736590 345736580 180667064#0 345736584 265461444#0 692610294 1157387458 345736587#0 345736587#1 30998717#0 11335846#1 926867325 345736604 926867324 265461454 926867322 23182939 265450242 345736606 686955221 926867319 345736600 345736602 -345736598 -926867317" >
        <stop busStop="3224629436" duration="20" until="712.0"/> <!-- Esslingen (N) ZOB -->
        <stop busStop="3933810892" duration="20" until="932.0"/> <!-- Weilstraße -->
        <stop busStop="2711169196" duration="20" until="1012.0"/> <!-- Im Holder -->
    </route>