<?xml version="1.0" encoding="UTF-8"?>

<!-- generated on 2023-05-01 16:57:54.983772 by $Id: ptlines2flows.py v1_3_1+0313-ccb31df3eb jakob.erdmann@dlr.de 2019-09-02 13:26:32 +0200 $ v1_16_0+0000-94ec4c6cd72
  options: 
-->

<routes xmlns:xsi="http://www.w3.org/2001/XMLSchema-instance" xsi:noNamespaceSchemaLocation="http://sumo.dlr.de/xsd/routes_file.xsd">
    <vType id="pt_bus" vClass="bus" speedFactor="0.95"/>
    <vType id="pt_tram" vClass="tram" speedFactor="1.0"/>
    <vType id="pt_train" vClass="rail"/>
    <vType id="pt_subway" vClass="rail_urban"/>
    <vType id="pt_light_rail" vClass="rail_urban"/>
    <vType id="pt_monorail" vClass="rail_urban"/>
    <vType id="pt_trolleybus" vClass="bus" speedFactor="0.95"/>
    <vType id="pt_minibus" vClass="bus" speedFactor="0.95"/>
    <vType id="pt_share_taxi" vClass="taxi" speedFactor="0.95"/>
    <vType id="pt_aerialway" vClass="rail_urban" length="2.5" width="2" personCapacity="4"/>
    <vType id="pt_ferry" vClass="ship"/>
    <trip id="Work" type="pt_bus" depart="0.0" departLane="best" from="378237374#0" to="37181837#4">
    </trip>
    <trip id="0_bus_114:0" type="pt_bus" depart="3.0" departLane="best" from="384972991#1" to="-4811453#1">
        <stop busStop="2739052081" duration="30"/>
        <stop busStop="-1254192526" duration="30"/>
        <stop busStop="1219607572" duration="30"/>
        <stop busStop="2626499005" duration="30"/>
    </trip>
    <trip id="1_bus_114:1" type="pt_bus" depart="15.0" departLane="best" from="4811453#0" to="384972991#1">
        <stop busStop="-2626499005" duration="30"/>
    </trip>
    <trip id="2_train_RE_5:0" type="pt_train" depart="15.0" departLane="best" from="248760538#0" to="85959749#1">
        <stop busStop="2661523902" duration="30"/>
    </trip>
    <trip id="3_bus_114:2" type="pt_bus" depart="17.0" departLane="best" from="384972991#1" to="-4811453#1">
        <stop busStop="2739052081" duration="30"/>
        <stop busStop="-6515317595" duration="30"/>
    </trip>
    <trip id="4_bus_106:0" type="pt_bus" depart="27.0" departLane="best" from="384972991#1" to="-4811453#1">
        <stop busStop="2739052081" duration="30"/>
        <stop busStop="-6515317595" duration="30"/>
    </trip>
    <trip id="5_train_S1:0" type="pt_train" depart="47.0" departLane="best" from="292876203" to="180784454#3">
        <stop busStop="1187584571" duration="30"/>
        <stop busStop="1187534664" duration="30"/>
        <stop busStop="3082151227" duration="30"/>
        <stop busStop="1187477995" duration="30"/>
    </trip>
    <trip id="6_bus_108:0" type="pt_bus" depart="52.0" departLane="best" from="-386500268#0" to="-8812305#0">
        <stop busStop="-3566577210" duration="30"/>
        <stop busStop="-3872841444" duration="30"/>
    </trip>
    <trip id="7_trolleybus_101:0" type="pt_trolleybus" depart="55.0" departLane="best" from="4811453#0" to="448974997#1">
        <stop busStop="3876394647" duration="30"/>
    </trip>
    <trip id="8_bus_131:0" type="pt_bus" depart="58.0" departLane="best" from="675777502" to="-264621638">
        <stop busStop="3224629436" duration="30"/>
        <stop busStop="-3872841443" duration="30"/>
    </trip>
    <trip id="9_bus_122:0" type="pt_bus" depart="60.0" departLane="best" from="-392441930" to="-264621638">
        <stop busStop="-3566577209" duration="30"/>
        <stop busStop="-3872841444" duration="30"/>
    </trip>
    <trip id="10_bus_119:0" type="pt_bus" depart="0.0" departLane="best" from="268558823#1" to="926867314">
        <stop busStop="3566577206" duration="30"/>
        <stop busStop="3933810892" duration="30"/>
        <stop busStop="2711169196" duration="30"/>
    </trip>
    <trip id="11_bus_120:0" type="pt_bus" depart="98.0" departLane="best" from="384972991#1" to="926867314">
        <stop busStop="2739052081" duration="30"/>
        <stop busStop="3933810892" duration="30"/>
        <stop busStop="2711169196" duration="30"/>
    </trip>
    <trip id="12_trolleybus_118:0" type="pt_trolleybus" depart="0.0" departLane="best" from="-926867318" to="-926867317">
        <stop busStop="3224629436" duration="30"/>
        <stop busStop="3933810892" duration="30"/>
        <stop busStop="2711169196" duration="30"/>
    </trip>
    <trip id="13_trolleybus_101:1" type="pt_trolleybus" depart="119.0" departLane="best" from="-448974997#1" to="-4811453#1">
        <stop busStop="-3872480827" duration="30"/>
    </trip>
    <trip id="14_bus_122:1" type="pt_bus" depart="125.0" departLane="best" from="264621638" to="-392441930">
        <stop busStop="-248493258" duration="30"/>
    </trip>
    <trip id="15_train_S1:1" type="pt_train" depart="131.0" departLane="best" from="123444522#0" to="85959750#1">
        <stop busStop="3068304222" duration="30"/>
        <stop busStop="3082162048" duration="30"/>
        <stop busStop="263337147" duration="30"/>
        <stop busStop="263337141" duration="30"/>
        <stop busStop="3222963807" duration="30"/>
    </trip>
    <trip id="16_bus_102:0" type="pt_bus" depart="132.0" departLane="best" from="-23439978#5" to="37721066#1">
        <stop busStop="-496276886" duration="30"/>
    </trip>
    <trip id="17_bus_102:1" type="pt_bus" depart="133.0" departLane="best" from="-23439978#5" to="37721066#1">
        <stop busStop="-496276886" duration="30"/>
    </trip>
    <trip id="18_bus_102:2" type="pt_bus" depart="136.0" departLane="best" from="-37721066#1" to="23439978#5">
        <stop busStop="-3872841423" duration="30"/>
    </trip>
    <trip id="19_bus_102:3" type="pt_bus" depart="137.0" departLane="best" from="-37721066#1" to="23439978#5">
        <stop busStop="-3872841423" duration="30"/>
    </trip>
    <trip id="20_bus_102:4" type="pt_bus" depart="139.0" departLane="best" from="-23439978#5" to="37721066#1">
        <stop busStop="-496276886" duration="30"/>
    </trip>
    <trip id="21_bus_102:5" type="pt_bus" depart="160.0" departLane="best" from="-37721066#1" to="23439978#5">
        <stop busStop="-3872841423" duration="30"/>
    </trip>
    <trip id="22_bus_103:0" type="pt_bus" depart="165.0" departLane="best" from="-23439978#5" to="37721066#1">
        <stop busStop="-496276886" duration="30"/>
    </trip>
    <trip id="23_bus_103:1" type="pt_bus" depart="166.0" departLane="best" from="-23439978#5" to="37721066#1">
        <stop busStop="-496276886" duration="30"/>
    </trip>
    <trip id="24_bus_103:2" type="pt_bus" depart="173.0" departLane="best" from="-23439978#5" to="37721066#1">
        <stop busStop="-496276886" duration="30"/>
    </trip>
    <trip id="25_bus_103:3" type="pt_bus" depart="201.0" departLane="best" from="-37721066#1" to="23439978#5">
        <stop busStop="-3872841423" duration="30"/>
    </trip>
    <trip id="26_bus_103:4" type="pt_bus" depart="204.0" departLane="best" from="-37721066#1" to="23439978#5">
        <stop busStop="-3872841423" duration="30"/>
    </trip>
    <trip id="27_bus_103:5" type="pt_bus" depart="218.0" departLane="best" from="-37721066#1" to="23439978#5">
        <stop busStop="-3872841423" duration="30"/>
    </trip>
    <trip id="28_bus_104:0" type="pt_bus" depart="222.0" departLane="best" from="386500268#1" to="-474485723">
        <stop busStop="3566577208" duration="30"/>
        <stop busStop="-6515317595" duration="30"/>
    </trip>
    <trip id="29_bus_104:1" type="pt_bus" depart="227.0" departLane="best" from="386500268#1" to="-474485723">
        <stop busStop="3566577208" duration="30"/>
        <stop busStop="-6515317595" duration="30"/>
    </trip>
    <trip id="30_bus_104:2" type="pt_bus" depart="227.0" departLane="best" from="474485723" to="386500268#1">
        <stop busStop="4684341514" duration="30"/>
    </trip>
    <trip id="31_bus_104:3" type="pt_bus" depart="253.0" departLane="best" from="474485723" to="386500268#1">
        <stop busStop="4684341514" duration="30"/>
    </trip>
    <trip id="32_bus_105:0" type="pt_bus" depart="303.0" departLane="best" from="675674221" to="-392441930">
        <stop busStop="6327610134" duration="30"/>
    </trip>
    <trip id="33_bus_105:1" type="pt_bus" depart="321.0" departLane="best" from="-392441930" to="675674221">
        <stop busStop="-3566577209" duration="30"/>
        <stop busStop="-3872841444" duration="30"/>
    </trip>
    <trip id="34_bus_106:1" type="pt_bus" depart="326.0" departLane="best" from="4811453#0" to="384972991#1">
        <stop busStop="-2626499005" duration="30"/>
    </trip>
    <trip id="35_bus_108:1" type="pt_bus" depart="331.0" departLane="best" from="787951054" to="-386500268#0">
    </trip>
    <trip id="36_bus_109:0" type="pt_bus" depart="334.0" departLane="best" from="-386500268#0" to="956612326">
        <stop busStop="-6501810816" duration="30"/>
        <stop busStop="-2648044989" duration="30"/>
    </trip>
    <trip id="37_bus_109:1" type="pt_bus" depart="346.0" departLane="best" from="-956612326" to="-386500268#0">
        <stop busStop="-3904477589" duration="30"/>
    </trip>
    <trip id="38_bus_110:0" type="pt_bus" depart="353.0" departLane="best" from="-392441930" to="-537710741#0">
        <stop busStop="-3566577209" duration="30"/>
        <stop busStop="-3872841444" duration="30"/>
    </trip>
    <trip id="39_bus_110:1" type="pt_bus" depart="362.0" departLane="best" from="537710741#0" to="156260258">
        <stop busStop="125392608" duration="30"/>
    </trip>
    <trip id="40_bus_111:0" type="pt_bus" depart="365.0" departLane="best" from="-386500268#0" to="-8812305#0">
        <stop busStop="-3566577210" duration="30"/>
        <stop busStop="-6515317538" duration="30"/>
    </trip>
    <trip id="41_bus_111:1" type="pt_bus" depart="371.0" departLane="best" from="23471056#1" to="23471056#1">
        <stop busStop="3904767704" duration="30"/>
    </trip>
    <trip id="42_bus_112:0" type="pt_bus" depart="381.0" departLane="best" from="268558823#1" to="-8812305#0">
        <stop busStop="3566577206" duration="30"/>
        <stop busStop="-6515317538" duration="30"/>
    </trip>
    <trip id="43_bus_112:1" type="pt_bus" depart="383.0" departLane="best" from="268558823#1" to="-537710741#0">
        <stop busStop="3566577206" duration="30"/>
        <stop busStop="-6515317538" duration="30"/>
    </trip>
    <trip id="44_bus_112:2" type="pt_bus" depart="383.0" departLane="best" from="787951054" to="268558823#1">
    </trip>
    <trip id="45_bus_112:3" type="pt_bus" depart="388.0" departLane="best" from="537710741#0" to="268558823#1">
        <stop busStop="125392608" duration="30"/>
    </trip>
    <trip id="46_bus_113:0" type="pt_bus" depart="389.0" departLane="best" from="675777502" to="926867314">
        <stop busStop="3224629436" duration="30"/>
        <stop busStop="-6515317538" duration="30"/>
    </trip>
    <trip id="47_bus_113:1" type="pt_bus" depart="406.0" departLane="best" from="675777502" to="-474485723">
        <stop busStop="3224629436" duration="30"/>
        <stop busStop="-6515317538" duration="30"/>
    </trip>
    <trip id="48_bus_113:2" type="pt_bus" depart="410.0" departLane="best" from="-926867314" to="316354392">
        <stop busStop="-89023451" duration="30"/>
    </trip>
    <trip id="49_bus_113:3" type="pt_bus" depart="418.0" departLane="best" from="474485723" to="316354392">
        <stop busStop="4684341514" duration="30"/>
    </trip>
    <trip id="50_bus_114:3" type="pt_bus" depart="422.0" departLane="best" from="384972991#1" to="-4811453#1">
        <stop busStop="2739052081" duration="30"/>
        <stop busStop="-6515317595" duration="30"/>
    </trip>
    <trip id="51_bus_114:4" type="pt_bus" depart="437.0" departLane="best" from="4811453#0" to="384972991#1">
        <stop busStop="-2626499005" duration="30"/>
    </trip>
    <trip id="52_bus_114:5" type="pt_bus" depart="437.0" departLane="best" from="4811453#0" to="384972991#1">
        <stop busStop="-2626499005" duration="30"/>
    </trip>
    <trip id="53_bus_115:0" type="pt_bus" depart="441.0" departLane="best" from="-448974997#1" to="-4811453#1">
        <stop busStop="-3872480827" duration="30"/>
    </trip>
    <trip id="54_bus_115:1" type="pt_bus" depart="465.0" departLane="best" from="4811453#0" to="156260258">
        <stop busStop="3876394647" duration="30"/>
    </trip>
    <trip id="55_bus_119:1" type="pt_bus" depart="483.0" departLane="best" from="-926867314" to="268558823#1">
        <stop busStop="-89023451" duration="30"/>
    </trip>
    <trip id="56_bus_120:1" type="pt_bus" depart="484.0" departLane="best" from="-926867314" to="384972991#1">
        <stop busStop="-89023451" duration="30"/>
    </trip>
    <trip id="57_bus_131:1" type="pt_bus" depart="485.0" departLane="best" from="264621638" to="316354392">
        <stop busStop="-248493258" duration="30"/>
    </trip>
    <trip id="58_bus_140:0" type="pt_bus" depart="497.0" departLane="best" from="268558821#1" to="-4811453#1">
        <stop busStop="3566577205" duration="30"/>
        <stop busStop="-3872841443" duration="30"/>
    </trip>
    <trip id="59_bus_140:1" type="pt_bus" depart="505.0" departLane="best" from="4811453#0" to="268558821#1">
        <stop busStop="-2626499005" duration="30"/>
    </trip>
    <trip id="60_trolleybus_118:1" type="pt_trolleybus" depart="508.0" departLane="best" from="-926867318" to="-926867317">
        <stop busStop="3224629436" duration="30"/>
        <stop busStop="3933810892" duration="30"/>
        <stop busStop="2711169196" duration="30"/>
    </trip>
    <trip id="61_bus_X20:0" type="pt_bus" depart="517.0" departLane="best" from="787951054" to="268558821#1">
        <stop busStop="3566577205" duration="30"/>
    </trip>
    <trip id="62_bus_X20:1" type="pt_bus" depart="535.0" departLane="best" from="268558821#1" to="-8812305#0">
        <stop busStop="3566577205" duration="30"/>
    </trip>
    <trip id="63_bus_130:0" type="pt_bus" depart="561.0" departLane="best" from="264621638" to="316354392">
        <stop busStop="-248493258" duration="30"/>
    </trip>
    <trip id="64_bus_130:1" type="pt_bus" depart="574.0" departLane="best" from="675777502" to="-264621638">
        <stop busStop="3224629436" duration="30"/>
        <stop busStop="-3872841443" duration="30"/>
    </trip>
    <trip id="65_bus_N22:0" type="pt_bus" depart="583.0" departLane="best" from="384972991#1" to="-23032776#0">
        <stop busStop="2739052081" duration="30"/>
        <stop busStop="-3872841443" duration="30"/>
    </trip>
    <trip id="66_bus_N19:0" type="pt_bus" depart="593.0" departLane="best" from="-926867318" to="686955221">
        <stop busStop="3566577206" duration="30"/>
        <stop busStop="3933810892" duration="30"/>
        <stop busStop="2711169196" duration="30"/>
    </trip>
</routes>
