<?xml version="1.0" encoding="UTF-8"?>

<!-- generated on 2023-11-16 12:15:28 by Eclipse SUMO netconvert Version 1.19.0
<configuration xmlns:xsi="http://www.w3.org/2001/XMLSchema-instance" xsi:noNamespaceSchemaLocation="http://sumo.dlr.de/xsd/netconvertConfiguration.xsd">

    <input>
        <sumo-net-file value="resources\gtfs\numerical.net.xml"/>
    </input>

    <output>
        <output-file value="resources\gtfs\light_rail.net.xml"/>
        <dlr-navteq.precision value="0"/>
        <output.street-names value="true"/>
        <output.original-names value="true"/>
    </output>

    <processing>
        <numerical-ids value="true"/>
        <geometry.min-radius.fix.railways value="false"/>
        <geometry.avoid-overlap value="false"/>
        <geometry.max-grade.fix value="false"/>
        <offset.disable-normalization value="true"/>
        <lefthand value="0"/>
    </processing>

    <edge_removal>
        <keep-edges.by-type value="railway.light_rail"/>
    </edge_removal>

    <junctions>
        <no-internal-links value="true"/>
        <no-turnarounds value="true"/>
        <junctions.corner-detail value="0"/>
        <junctions.limit-turn-speed value="5.50"/>
        <rectangular-lane-cut value="0"/>
    </junctions>

    <pedestrian>
        <walkingareas value="0"/>
    </pedestrian>

    <report>
        <aggregate-warnings value="1"/>
    </report>

</configuration>
-->

<net version="1.16" limitTurnSpeed="5.50" avoidOverlap="0" xmlns:xsi="http://www.w3.org/2001/XMLSchema-instance" xsi:noNamespaceSchemaLocation="http://sumo.dlr.de/xsd/net_file.xsd">

    <location netOffset="-518505.45,-5396240.38" convBoundary="0.00,364.61,1644.13,1474.02" origBoundary="9.251115,48.718527,9.394335,48.773086" projParameter="+proj=utm +zone=32 +ellps=WGS84 +datum=WGS84 +units=m +no_defs"/>

    <type id="railway.light_rail" priority="19" numLanes="1" speed="27.78" allow="rail_urban" oneway="1"/>

    <edge id="1187640163" from="295255899" to="295255966" priority="19" type="railway.light_rail" spreadType="center" shape="803.36,798.49 833.08,785.08 889.13,760.06 908.64,751.79 929.20,743.93 944.00,739.24 960.11,734.26 971.05,731.69 982.81,729.01 993.42,726.99 1005.90,725.01 1024.25,722.73 1044.12,720.77 1084.34,717.24 1124.14,713.95 1162.70,710.53 1187.64,707.49 1200.14,705.67 1211.94,703.65 1224.82,701.40 1238.47,698.41 1250.78,695.42 1263.97,692.05 1274.92,689.02 1285.27,686.03 1305.29,679.66 1336.71,669.34 1367.18,659.22 1398.20,648.56 1428.30,637.34 1470.77,623.15 1504.86,610.98 1518.42,605.58 1529.34,600.69 1542.44,594.10 1548.49,590.69 1557.27,585.09 1565.52,579.05 1573.69,572.30 1580.81,565.99 1588.02,558.77 1594.96,550.86 1601.82,542.05 1606.64,535.17 1611.40,527.61 1616.56,518.96 1621.36,509.76 1625.03,501.61 1628.58,492.84 1631.79,483.44 1634.58,473.32 1636.60,463.52 1638.32,452.92 1639.29,442.66 1639.81,433.32 1639.64,420.38 1639.23,411.96 1638.32,403.78 1637.02,395.56 1634.59,384.70 1632.02,374.62 1629.42,366.35">
        <lane id="1187640163_0" index="0" allow="rail_urban" speed="27.78" length="1037.02" shape="803.49,798.43 833.08,785.08 889.13,760.06 908.64,751.79 929.20,743.93 944.00,739.24 960.11,734.26 971.05,731.69 982.81,729.01 993.42,726.99 1005.90,725.01 1024.25,722.73 1044.12,720.77 1084.34,717.24 1124.14,713.95 1162.70,710.53 1187.64,707.49 1200.14,705.67 1211.94,703.65 1224.82,701.40 1238.47,698.41 1250.78,695.42 1263.97,692.05 1274.92,689.02 1285.27,686.03 1305.29,679.66 1336.71,669.34 1367.18,659.22 1398.20,648.56 1428.30,637.34 1470.77,623.15 1504.86,610.98 1518.42,605.58 1529.34,600.69 1542.44,594.10 1548.49,590.69 1557.27,585.09 1565.52,579.05 1573.69,572.30 1580.81,565.99 1588.02,558.77 1594.96,550.86 1601.82,542.05 1606.64,535.17 1611.40,527.61 1616.56,518.96 1621.36,509.76 1625.03,501.61 1628.58,492.84 1631.79,483.44 1634.58,473.32 1636.60,463.52 1638.32,452.92 1639.29,442.66 1639.81,433.32 1639.64,420.38 1639.23,411.96 1638.32,403.78 1637.02,395.56 1634.59,384.70 1632.02,374.62 1629.42,366.35">
            <param key="origId" value="26946517#1"/>
        </lane>
    </edge>
    <edge id="12815133" from="253872754" to="113591456" priority="19" type="railway.light_rail" spreadType="center" shape="1633.59,364.61 1636.08,373.19 1638.66,383.83 1641.09,394.63 1642.38,402.86 1643.36,411.91 1643.70,420.21 1644.13,432.91 1643.36,443.47 1642.38,453.66 1640.72,464.43 1638.56,474.89 1635.57,485.17 1632.36,494.56 1628.81,503.26 1625.26,511.31 1619.99,521.25 1614.32,530.76 1609.57,538.32 1604.91,545.23 1597.82,554.30 1590.72,562.55 1583.50,570.11 1576.30,577.03 1568.44,583.97 1560.38,590.38 1552.28,596.35 1539.73,604.02 1529.78,609.60 1517.91,615.47 1507.79,620.05 1473.44,632.41 1430.86,645.40 1400.76,655.51 1369.20,665.08 1338.11,674.64 1306.51,684.16 1286.13,690.12 1276.13,692.98 1265.30,695.77 1251.88,699.32 1239.20,702.25 1225.37,705.18 1212.49,707.51 1200.87,709.50 1188.07,711.33 1163.18,714.20 1124.32,717.55 1084.53,720.96 1044.37,724.43 1025.11,726.39 1006.12,729.00 994.27,730.89 983.55,733.14 971.90,735.70 960.92,738.57 945.64,743.08 931.18,747.49 910.54,755.51 891.16,763.99 837.45,789.57 759.16,828.25 726.16,844.31 699.97,857.84 664.80,877.73 649.86,889.81 637.43,903.48 619.00,933.39 608.58,949.95 599.51,963.78 569.70,1000.88 538.85,1037.38 528.99,1046.71 516.75,1057.88 485.68,1081.13 463.95,1097.03 431.80,1119.08 398.44,1142.47 358.23,1173.76 318.77,1205.06 276.86,1244.03 234.23,1281.96 190.77,1317.72 155.98,1347.77 152.96,1350.33 146.39,1355.74 128.27,1369.69 66.84,1423.18 35.93,1449.55 2.27,1474.02">
        <lane id="12815133_0" index="0" allow="rail_urban" speed="27.78" length="2100.92" shape="1633.59,364.61 1636.08,373.19 1638.66,383.83 1641.09,394.63 1642.38,402.86 1643.36,411.91 1643.70,420.21 1644.13,432.91 1643.36,443.47 1642.38,453.66 1640.72,464.43 1638.56,474.89 1635.57,485.17 1632.36,494.56 1628.81,503.26 1625.26,511.31 1619.99,521.25 1614.32,530.76 1609.57,538.32 1604.91,545.23 1597.82,554.30 1590.72,562.55 1583.50,570.11 1576.30,577.03 1568.44,583.97 1560.38,590.38 1552.28,596.35 1539.73,604.02 1529.78,609.60 1517.91,615.47 1507.79,620.05 1473.44,632.41 1430.86,645.40 1400.76,655.51 1369.20,665.08 1338.11,674.64 1306.51,684.16 1286.13,690.12 1276.13,692.98 1265.30,695.77 1251.88,699.32 1239.20,702.25 1225.37,705.18 1212.49,707.51 1200.87,709.50 1188.07,711.33 1163.18,714.20 1124.32,717.55 1084.53,720.96 1044.37,724.43 1025.11,726.39 1006.12,729.00 994.27,730.89 983.55,733.14 971.90,735.70 960.92,738.57 945.64,743.08 931.18,747.49 910.54,755.51 891.16,763.99 837.45,789.57 759.16,828.25 726.16,844.31 699.97,857.84 664.80,877.73 649.86,889.81 637.43,903.48 619.00,933.39 608.58,949.95 599.51,963.78 569.70,1000.88 538.85,1037.38 528.99,1046.71 516.75,1057.88 485.68,1081.13 463.95,1097.03 431.80,1119.08 398.44,1142.47 358.23,1173.76 318.77,1205.06 276.86,1244.03 234.23,1281.96 190.77,1317.72 155.98,1347.77 152.96,1350.33 146.39,1355.74 128.27,1369.69 66.84,1423.18 35.93,1449.55 2.27,1474.02"/>
    </edge>
    <edge id="26946520" from="295255870" to="295255899" priority="19" type="railway.light_rail" spreadType="center" shape="0.00,1470.89 32.98,1445.81 63.37,1418.91 114.17,1371.34 140.18,1348.51 148.15,1342.13 176.20,1319.55 231.19,1277.44 275.00,1239.82 292.07,1220.97 315.48,1201.84 356.23,1168.53 403.30,1132.76 429.87,1114.27 461.78,1092.33 482.90,1077.29 514.25,1053.43 525.78,1042.80 534.75,1034.06 565.81,997.69 594.95,960.57 604.26,944.72 613.85,928.88 631.17,899.98 644.14,884.18 659.04,871.37 692.11,850.88 702.55,844.93 714.29,838.44 754.37,819.50 803.36,798.49">
        <lane id="26946520_0" index="0" allow="rail_urban" speed="27.78" length="1059.16" shape="-0.00,1470.89 32.98,1445.81 63.37,1418.91 114.17,1371.34 140.18,1348.51 148.15,1342.13 176.20,1319.55 231.19,1277.44 275.00,1239.82 292.07,1220.97 315.48,1201.84 356.23,1168.53 403.30,1132.76 429.87,1114.27 461.78,1092.33 482.90,1077.29 514.25,1053.43 525.78,1042.80 534.75,1034.06 565.81,997.69 594.95,960.57 604.26,944.72 613.85,928.88 631.17,899.98 644.14,884.18 659.04,871.37 692.11,850.88 702.55,844.93 714.29,838.44 754.37,819.50 803.23,798.55"/>
    </edge>

    <junction id="113591456" type="dead_end" x="2.27" y="1474.02" incLanes="12815133_0" intLanes="" shape="3.21,1475.31 1.33,1472.73"/>
    <junction id="253872754" type="dead_end" x="1633.59" y="364.61" incLanes="" intLanes="" shape="1632.05,365.06 1635.13,364.16"/>
    <junction id="295255870" type="dead_end" x="0.00" y="1470.89" incLanes="" intLanes="" shape="0.97,1472.16 -0.97,1469.62"/>
    <junction id="295255899" type="priority" x="803.36" y="798.49" incLanes="26946520_0" intLanes="" shape="804.15,799.89 802.83,796.97 802.60,797.08 803.86,800.02">
        <request index="0" response="0" foes="0"/>
    </junction>
    <junction id="295255966" type="dead_end" x="1629.42" y="366.35" incLanes="1187640163_0" intLanes="" shape="1627.89,366.83 1630.95,365.87"/>

    <connection from="26946520" to="1187640163" fromLane="0" toLane="0" dir="s" state="M"/>

</net>
