<?xml version="1.0" encoding="UTF-8"?>

<!-- generated on 2023-11-16 12:15:29 by Eclipse SUMO netconvert Version 1.19.0
<configuration xmlns:xsi="http://www.w3.org/2001/XMLSchema-instance" xsi:noNamespaceSchemaLocation="http://sumo.dlr.de/xsd/netconvertConfiguration.xsd">

    <input>
        <sumo-net-file value="resources\gtfs\numerical.net.xml"/>
    </input>

    <output>
        <output-file value="resources\gtfs\train.net.xml"/>
        <dlr-navteq.precision value="0"/>
        <output.street-names value="true"/>
        <output.original-names value="true"/>
    </output>

    <processing>
        <numerical-ids value="true"/>
        <geometry.min-radius.fix.railways value="false"/>
        <geometry.avoid-overlap value="false"/>
        <geometry.max-grade.fix value="false"/>
        <offset.disable-normalization value="true"/>
        <lefthand value="0"/>
    </processing>

    <edge_removal>
        <keep-edges.by-type value="railway.rail,railway.light_rail"/>
    </edge_removal>

    <junctions>
        <no-internal-links value="true"/>
        <no-turnarounds value="true"/>
        <junctions.corner-detail value="0"/>
        <junctions.limit-turn-speed value="5.50"/>
        <rectangular-lane-cut value="0"/>
    </junctions>

    <pedestrian>
        <walkingareas value="0"/>
    </pedestrian>

    <report>
        <aggregate-warnings value="1"/>
    </report>

</configuration>
-->

<net version="1.16" limitTurnSpeed="5.50" avoidOverlap="0" xmlns:xsi="http://www.w3.org/2001/XMLSchema-instance" xsi:noNamespaceSchemaLocation="http://sumo.dlr.de/xsd/net_file.xsd">

    <location netOffset="-518505.45,-5396240.38" convBoundary="0.00,0.00,10269.48,5300.41" origBoundary="9.251115,48.718527,9.394335,48.773086" projParameter="+proj=utm +zone=32 +ellps=WGS84 +datum=WGS84 +units=m +no_defs"/>

    <type id="railway.light_rail" priority="19" numLanes="1" speed="27.78" allow="rail_urban" oneway="1"/>
    <type id="railway.rail" priority="20" numLanes="1" speed="44.44" allow="rail" oneway="1"/>

    <edge id="-102841934" from="1187584489" to="1187584624" priority="20" type="railway.rail" spreadType="center" shape="3277.91,2300.10 3315.34,2282.50 3326.27,2277.52 3369.08,2259.78 3439.55,2229.99 3576.69,2167.57" bidi="102841934">
        <lane id="-102841934_0" index="0" allow="rail rail_electric rail_fast" speed="44.44" length="326.90" shape="3308.68,2285.63 3315.34,2282.50 3326.27,2277.52 3369.08,2259.78 3439.55,2229.99 3576.69,2167.57"/>
        <param key="railway:track_ref" value="12"/>
    </edge>
    <edge id="-102841945" from="1187584503" to="1187584479" priority="20" type="railway.rail" spreadType="center" shape="2798.75,2440.59 2860.28,2423.40 3041.58,2370.13 3168.28,2333.23 3223.24,2319.14" bidi="102841945">
        <lane id="-102841945_0" index="0" allow="rail rail_electric rail_fast" speed="44.44" length="441.55" shape="2798.75,2440.59 2860.28,2423.40 3041.58,2370.13 3168.28,2333.23 3182.27,2329.64"/>
    </edge>
    <edge id="-1086171355" from="9952423475" to="3963991748" name="4701" priority="20" type="railway.rail" spreadType="center" shape="1713.40,3422.92 1715.01,3412.90 1724.94,3338.03 1727.35,3317.71 1735.29,3259.23 1735.73,3255.78 1740.06,3230.27 1743.22,3212.52 1745.90,3200.73 1750.14,3180.88 1762.77,3134.28 1782.92,3077.05 1809.63,3016.44 1817.75,3000.34 1835.57,2967.96 1850.00,2943.94 1865.73,2919.94 1913.38,2855.35 1945.67,2815.86 1976.70,2784.21" bidi="1187642717">
        <lane id="-1086171355_0" index="0" allow="rail rail_electric rail_fast" speed="30.56" length="707.42" shape="1713.42,3422.78 1715.01,3412.90 1724.94,3338.03 1727.35,3317.71 1735.29,3259.23 1735.73,3255.78 1740.06,3230.27 1743.22,3212.52 1745.90,3200.73 1750.14,3180.88 1762.77,3134.28 1782.92,3077.05 1809.63,3016.44 1817.75,3000.34 1835.57,2967.96 1850.00,2943.94 1865.73,2919.94 1913.38,2855.35 1945.67,2815.86 1976.63,2784.28"/>
    </edge>
    <edge id="-24304026" from="3963755322" to="2964325544" name="4701" priority="20" type="railway.rail" spreadType="center" shape="1846.23,2940.02 1830.61,2963.99 1809.63,2996.10 1801.30,3011.05 1800.74,3012.05 1788.24,3035.31 1779.41,3053.48 1777.33,3057.48 1770.59,3072.78 1759.39,3103.22 1752.25,3126.21 1747.54,3142.20 1742.85,3162.13 1736.84,3196.79 1733.20,3224.75 1729.55,3257.93 1723.25,3316.81 1720.98,3337.35 1711.35,3411.73 1711.12,3413.08" bidi="1187640523" distance="11311.23">
        <lane id="-24304026_0" index="0" allow="rail rail_electric rail_fast" speed="27.78" length="499.72" shape="1846.17,2940.12 1830.61,2963.99 1809.63,2996.10 1801.30,3011.05 1800.74,3012.05 1788.24,3035.31 1779.41,3053.48 1777.33,3057.48 1770.59,3072.78 1759.39,3103.22 1752.25,3126.21 1747.54,3142.20 1742.85,3162.13 1736.84,3196.79 1733.20,3224.75 1729.55,3257.93 1723.25,3316.81 1720.98,3337.35 1711.35,3411.73 1711.14,3412.94"/>
    </edge>
    <edge id="-244328491" from="3963992272" to="1187584555" name="4700" priority="20" type="railway.rail" spreadType="center" shape="2538.51,2514.17 2539.41,2513.96 2566.99,2509.42 2645.56,2495.45 2672.94,2490.69 2727.30,2481.02 2742.51,2478.26" bidi="1187637159">
        <lane id="-244328491_0" index="0" allow="rail rail_electric rail_fast" speed="41.67" length="207.14" shape="2538.51,2514.17 2539.41,2513.96 2566.99,2509.42 2645.56,2495.45 2672.94,2490.69 2727.30,2481.02 2741.00,2478.53"/>
    </edge>
    <edge id="-284659685" from="1911596318" to="3963992276" name="4700" priority="20" type="railway.rail" spreadType="center" shape="2538.65,2509.70 2503.47,2516.63 2427.55,2531.57 2397.38,2539.09 2360.01,2550.19 2301.05,2571.38 2262.57,2587.23" bidi="1187637160">
        <lane id="-284659685_0" index="0" allow="rail rail_electric rail_fast" speed="36.11" length="287.58" shape="2538.52,2509.72 2503.47,2516.63 2427.55,2531.57 2397.38,2539.09 2360.01,2550.19 2301.05,2571.38 2262.69,2587.18"/>
    </edge>
    <edge id="-393182134" from="3963987289" to="3963987291" priority="20" type="railway.rail" spreadType="center" shape="3915.68,2050.24 3900.47,2056.17 3878.97,2065.11" bidi="393182134">
        <lane id="-393182134_0" index="0" allow="rail rail_electric rail_fast" speed="44.44" length="39.61" shape="3915.68,2050.24 3914.11,2050.85"/>
    </edge>
    <edge id="-87195276" from="3963991750" to="4428948771" name="4700" priority="20" type="railway.rail" spreadType="center" shape="1922.09,2852.62 1918.96,2856.44 1906.67,2872.33 1875.79,2912.82 1869.84,2922.82 1846.01,2959.71 1822.40,3001.66 1814.00,3018.64 1787.62,3078.40 1785.67,3083.34 1768.06,3134.56 1759.76,3162.77 1749.65,3204.71 1739.76,3260.70 1735.61,3292.30 1731.99,3318.99 1729.83,3339.21 1719.86,3413.16" bidi="1187642353" distance="11398.58">
        <lane id="-87195276_0" index="0" allow="rail rail_electric rail_fast" speed="36.11" length="606.54" shape="1922.00,2852.73 1918.96,2856.44 1906.67,2872.33 1875.79,2912.82 1869.84,2922.82 1846.01,2959.71 1822.40,3001.66 1814.00,3018.64 1787.62,3078.40 1785.67,3083.34 1768.06,3134.56 1759.76,3162.77 1749.65,3204.71 1739.76,3260.70 1735.61,3292.30 1731.99,3318.99 1729.83,3339.21 1719.88,3413.03"/>
    </edge>
    <edge id="1004927222" from="7123514675" to="829494543" priority="20" type="railway.rail" spreadType="center" shape="661.90,4533.72 702.90,4440.55 765.66,4298.98">
        <lane id="1004927222_0" index="0" allow="rail" speed="44.44" length="256.65" shape="661.90,4533.72 702.90,4440.55 765.03,4300.39"/>
    </edge>
    <edge id="102841929" from="1187584607" to="1187584467" priority="20" type="railway.rail" spreadType="center" shape="3932.39,2052.00 3911.47,2062.52 3889.11,2075.26 3866.19,2087.22">
        <lane id="102841929_0" index="0" allow="rail rail_electric rail_fast" speed="44.44" length="74.99" shape="3898.53,2070.34 3898.35,2070.44"/>
    </edge>
    <edge id="102841933" from="1187584566" to="1187584459" priority="20" type="railway.rail" spreadType="center">
        <lane id="102841933_0" index="0" allow="rail rail_electric rail_fast" speed="16.67" length="77.62" shape="3063.76,2383.14 3043.09,2387.82"/>
    </edge>
    <edge id="102841934" from="1187584624" to="1187584489" priority="20" type="railway.rail" spreadType="center" shape="3576.69,2167.57 3439.55,2229.99 3369.08,2259.78 3326.27,2277.52 3315.34,2282.50 3277.91,2300.10" bidi="-102841934">
        <lane id="102841934_0" index="0" allow="rail rail_electric rail_fast" speed="44.44" length="326.90" shape="3576.69,2167.57 3439.55,2229.99 3369.08,2259.78 3326.27,2277.52 3315.34,2282.50 3308.68,2285.63"/>
        <param key="railway:track_ref" value="12"/>
    </edge>
    <edge id="102841935" from="1187584636" to="1187584602" priority="20" type="railway.rail" spreadType="center" shape="3893.54,2054.83 3873.50,2062.11 3849.42,2070.04 3822.48,2079.28">
        <lane id="102841935_0" index="0" allow="rail rail_electric rail_fast" speed="16.67" length="75.15" shape="3892.12,2055.35 3873.50,2062.11 3868.43,2063.78"/>
    </edge>
    <edge id="102841936" from="1187584480" to="1684791988" priority="20" type="railway.rail" spreadType="center">
        <lane id="102841936_0" index="0" allow="rail rail_electric rail_fast" speed="16.67" length="108.28" shape="3783.76,2113.45 3685.65,2158.53"/>
    </edge>
    <edge id="102841937" from="1187584555" to="1187584534" priority="20" type="railway.rail" spreadType="center" shape="2742.51,2478.26 2726.02,2480.34 2653.31,2489.67">
        <lane id="102841937_0" index="0" allow="rail rail_electric rail_fast" speed="16.67" length="89.93" shape="2740.99,2478.45 2726.02,2480.34 2718.28,2481.33"/>
    </edge>
    <edge id="102841938" from="13354965" to="1187584603" priority="20" type="railway.rail" spreadType="center" shape="4178.64,1943.68 4156.05,1953.26 4131.43,1962.15 4105.51,1972.96">
        <lane id="102841938_0" index="0" allow="rail rail_electric rail_fast" speed="16.67" length="78.78" shape="4177.25,1944.27 4156.05,1953.26 4154.11,1953.96"/>
    </edge>
    <edge id="102841939" from="1187584586" to="1187584649" priority="20" type="railway.rail" spreadType="center" shape="4060.46,1980.66 4034.47,1992.98 4015.62,2003.29 3998.63,2011.14">
        <lane id="102841939_0" index="0" allow="rail rail_electric rail_fast" speed="16.67" length="68.95" shape="4019.09,2001.39 4015.62,2003.29 3999.97,2010.52"/>
    </edge>
    <edge id="102841941" from="263337139" to="1187584567" priority="20" type="railway.rail" spreadType="center" shape="3384.13,2272.62 3364.79,2278.06 3344.39,2282.68 3326.62,2287.51">
        <lane id="102841941_0" index="0" allow="rail rail_electric rail_fast" speed="44.44" length="59.42" shape="3382.64,2273.04 3364.79,2278.06 3352.83,2280.77"/>
    </edge>
    <edge id="102841942" from="1187584482" to="263337142" priority="20" type="railway.rail" spreadType="center" shape="4187.40,1922.71 4171.80,1930.99 4148.65,1944.33 4126.66,1956.09">
        <lane id="102841942_0" index="0" allow="rail rail_electric rail_fast" speed="16.67" length="69.31" shape="4159.15,1938.72 4158.97,1938.81"/>
    </edge>
    <edge id="102841943" from="1187584483" to="1187584662" priority="20" type="railway.rail" spreadType="center" shape="3221.43,2323.73 3211.04,2328.23 3197.96,2334.32 3182.73,2340.94 3165.56,2346.65">
        <lane id="102841943_0" index="0" allow="rail rail_electric rail_fast" speed="22.22" length="61.35" shape="3220.16,2324.28 3211.04,2328.23 3197.96,2334.32 3182.73,2340.94 3167.36,2346.05"/>
    </edge>
    <edge id="102841945" from="1187584479" to="1187584503" priority="20" type="railway.rail" spreadType="center" shape="3223.24,2319.14 3168.28,2333.23 3041.58,2370.13 2860.28,2423.40 2798.75,2440.59" bidi="-102841945">
        <lane id="102841945_0" index="0" allow="rail rail_electric rail_fast" speed="44.44" length="441.55" shape="3182.27,2329.64 3168.28,2333.23 3041.58,2370.13 2860.28,2423.40 2798.75,2440.59"/>
    </edge>
    <edge id="102845174" from="4525207640" to="3963987338" priority="20" type="railway.rail" spreadType="center" shape="3300.02,2337.77 3191.02,2371.21 3092.03,2399.30 3008.29,2422.60">
        <lane id="102845174_0" index="0" allow="rail rail_electric rail_fast" speed="44.44" length="303.83" shape="3299.90,2337.81 3191.02,2371.21 3092.03,2399.30 3008.43,2422.56"/>
        <param key="railway:track_ref" value="20"/>
    </edge>
    <edge id="102845175" from="1187584536" to="1187629441" priority="20" type="railway.rail" spreadType="center">
        <lane id="102845175_0" index="0" allow="rail rail_electric rail_fast" speed="16.67" length="98.62" shape="2637.10,2492.33 2608.48,2495.91"/>
    </edge>
    <edge id="1187633813" from="3963992274" to="3963755322" name="4701" priority="20" type="railway.rail" spreadType="center" shape="2259.35,2579.30 2250.11,2583.43 2232.32,2592.17 2214.51,2600.92 2178.61,2620.69 2145.08,2641.16 2086.84,2681.27 2058.41,2704.19 2037.09,2721.80 2028.15,2729.20 2010.27,2745.58 1995.52,2759.52 1980.14,2774.62 1972.95,2782.37 1943.63,2813.97 1913.28,2849.60 1908.75,2855.08 1871.48,2904.68 1847.13,2938.74 1846.23,2940.02" bidi="454381995" distance="11829.95">
        <lane id="1187633813_0" index="0" allow="rail rail_electric rail_fast" speed="30.56" length="555.71" shape="2259.22,2579.36 2250.11,2583.43 2232.32,2592.17 2214.51,2600.92 2178.61,2620.69 2145.08,2641.16 2086.84,2681.27 2058.41,2704.19 2037.09,2721.80 2028.15,2729.20 2010.27,2745.58 1995.52,2759.52 1980.14,2774.62 1972.95,2782.37 1943.63,2813.97 1913.28,2849.60 1908.75,2855.08 1871.48,2904.68 1847.13,2938.74 1846.30,2939.92">
            <param key="origId" value="-102807136#0"/>
        </lane>
    </edge>
    <edge id="1187633814" from="1911596331" to="3963992274" name="4701" priority="20" type="railway.rail" spreadType="center" shape="2440.56,2519.47 2438.10,2520.04 2434.78,2520.80 2425.36,2522.96 2410.39,2526.56 2392.80,2531.29 2357.50,2541.47 2293.13,2564.77 2259.35,2579.30" bidi="1187637136" distance="12030.99">
        <lane id="1187633814_0" index="0" allow="rail rail_electric rail_fast" speed="30.56" length="191.18" shape="2439.18,2519.79 2438.10,2520.04 2434.78,2520.80 2425.36,2522.96 2410.39,2526.56 2392.80,2531.29 2357.50,2541.47 2293.13,2564.77 2259.48,2579.24">
            <param key="origId" value="-102807136#1"/>
        </lane>
    </edge>
    <edge id="1187633815" from="3963987334" to="1187584566" priority="20" type="railway.rail" spreadType="center" bidi="1187637139">
        <lane id="1187633815_0" index="0" allow="rail rail_electric rail_fast" speed="16.67" length="12.23" shape="3076.84,2379.26 3066.65,2382.37">
            <param key="origId" value="-102807168#1"/>
        </lane>
    </edge>
    <edge id="1187633816" from="1187584489" to="1187584558" priority="20" type="railway.rail" spreadType="center" shape="3277.91,2300.10 3318.64,2285.64 3340.15,2277.27 3371.34,2265.13 3442.25,2233.56 3588.68,2167.03" bidi="1187637145">
        <lane id="1187633816_0" index="0" allow="rail rail_electric rail_fast" speed="44.44" length="338.23" shape="3309.95,2288.73 3318.64,2285.64 3340.15,2277.27 3371.34,2265.13 3442.25,2233.56 3588.68,2167.03">
            <param key="origId" value="-102841940#0"/>
        </lane>
        <param key="railway:track_ref" value="11"/>
    </edge>
    <edge id="1187633817" from="1187584447" to="1187584479" priority="20" type="railway.rail" spreadType="center" shape="2770.77,2452.01 2801.81,2444.44 2857.19,2429.02 3040.51,2375.25 3152.31,2343.08 3179.56,2334.07 3223.24,2319.14" bidi="1187637148">
        <lane id="1187633817_0" index="0" allow="rail rail_electric rail_fast" speed="44.44" length="471.68" shape="2770.77,2452.01 2801.81,2444.44 2857.19,2429.02 3040.51,2375.25 3152.31,2343.08 3179.56,2334.07 3183.21,2332.82">
            <param key="origId" value="-102841940#3"/>
        </lane>
        <param key="railway:track_ref" value="11"/>
    </edge>
    <edge id="1187633818" from="3963987336" to="1187584462" name="4700" priority="20" type="railway.rail" spreadType="center" shape="3043.51,2403.14 3059.20,2398.76 3188.89,2361.68 3264.64,2338.38 3333.27,2316.26 3345.62,2312.05 3349.58,2310.77 3384.02,2299.18 3421.14,2286.00 3467.55,2267.27 3504.11,2251.68 3589.28,2212.96 3642.02,2188.29 3728.77,2149.80 3730.39,2149.06 3792.31,2121.03" bidi="1187637964" distance="13356.09">
        <lane id="1187633818_0" index="0" allow="rail rail_electric rail_fast" speed="41.67" length="801.70" shape="3043.51,2403.14 3059.20,2398.76 3188.89,2361.68 3264.64,2338.38 3333.27,2316.26 3345.62,2312.05 3349.58,2310.77 3384.02,2299.18 3421.14,2286.00 3467.55,2267.27 3504.11,2251.68 3589.28,2212.96 3642.02,2188.29 3728.77,2149.80 3730.39,2149.06 3745.18,2142.36">
            <param key="origId" value="-102848475#0"/>
        </lane>
    </edge>
    <edge id="1187633819" from="757469592" to="3963987336" name="4700" priority="20" type="railway.rail" spreadType="center" shape="2765.01,2473.98 2818.28,2463.00 2824.78,2461.48 2855.08,2454.12 2900.85,2442.71 2979.08,2421.11 3043.51,2403.14" bidi="1187637153" distance="13643.55">
        <lane id="1187633819_0" index="0" allow="rail rail_electric rail_fast" speed="41.67" length="287.46" shape="2811.54,2464.39 2818.28,2463.00 2824.78,2461.48 2855.08,2454.12 2900.85,2442.71 2979.08,2421.11 3043.51,2403.14">
            <param key="origId" value="-102848475#1"/>
        </lane>
    </edge>
    <edge id="1187633820" from="1187584483" to="1911596331" name="4701" priority="20" type="railway.rail" spreadType="center" shape="3222.17,2324.94 3182.85,2338.12 3159.90,2345.52 3074.69,2370.71 3073.43,2371.08 2982.97,2397.47 2921.77,2415.08 2835.11,2440.37 2774.64,2456.11 2745.96,2462.68 2707.36,2470.31 2687.99,2474.08 2650.35,2480.61 2615.71,2486.62 2565.40,2495.35 2502.95,2506.28 2489.15,2508.85 2440.56,2519.47" bidi="1187637137" distance="12839.34">
        <lane id="1187633820_0" index="0" allow="rail rail_electric rail_fast" speed="30.56" length="806.52" shape="3220.56,2325.48 3182.85,2338.12 3159.90,2345.52 3074.69,2370.71 3073.43,2371.08 2982.97,2397.47 2921.77,2415.08 2835.11,2440.37 2774.64,2456.11 2745.96,2462.68 2707.36,2470.31 2687.99,2474.08 2650.35,2480.61 2615.71,2486.62 2565.40,2495.35 2502.95,2506.28 2489.15,2508.85 2442.08,2519.14">
            <param key="origId" value="-102848495#0"/>
        </lane>
    </edge>
    <edge id="1187633821" from="1911454513" to="1187584483" name="4701" priority="20" type="railway.rail" spreadType="center" bidi="1187637154" distance="12927.31">
        <lane id="1187633821_0" index="0" allow="rail rail_electric rail_fast" speed="30.56" length="87.97" shape="3303.63,2296.03 3223.53,2324.46">
            <param key="origId" value="-102848495#1"/>
        </lane>
    </edge>
    <edge id="1187633822" from="1187584567" to="1911454513" name="4701" priority="20" type="railway.rail" spreadType="center" bidi="1187637155" distance="12950.29">
        <lane id="1187633822_0" index="0" allow="rail rail_electric rail_fast" speed="30.56" length="22.99" shape="3325.15,2288.06 3306.42,2295.02">
            <param key="origId" value="-102848495#2"/>
        </lane>
    </edge>
    <edge id="1187633823" from="3963987313" to="1187584567" name="4701" priority="20" type="railway.rail" spreadType="center" shape="3384.40,2264.15 3372.80,2269.14 3326.62,2287.51" bidi="1187637156" distance="13012.63">
        <lane id="1187633823_0" index="0" allow="rail rail_electric rail_fast" speed="30.56" length="62.33" shape="3384.27,2264.21 3372.80,2269.14 3351.75,2277.51">
            <param key="origId" value="-102848495#3"/>
        </lane>
    </edge>
    <edge id="1187633824" from="1187584555" to="757469592" name="4700" priority="20" type="railway.rail" spreadType="center" bidi="1187637158">
        <lane id="1187633824_0" index="0" allow="rail rail_electric rail_fast" speed="41.67" length="22.90" shape="2743.93,2477.99 2763.51,2474.27">
            <param key="origId" value="-102848507#0"/>
        </lane>
    </edge>
    <edge id="1187633825" from="3963992276" to="3963991750" name="4700" priority="20" type="railway.rail" spreadType="center" shape="2262.57,2587.23 2259.69,2588.51 2219.17,2608.38 2173.80,2633.73 2128.66,2662.54 2091.82,2688.48 2045.86,2725.37 2042.59,2728.28 2002.38,2765.35 1987.11,2780.83 1980.09,2788.05 1949.88,2820.15 1922.09,2852.62" bidi="393182124">
        <lane id="1187633825_0" index="0" allow="rail rail_electric rail_fast" speed="36.11" length="435.49" shape="2262.45,2587.28 2259.69,2588.51 2219.17,2608.38 2173.80,2633.73 2128.66,2662.54 2091.82,2688.48 2045.86,2725.37 2042.59,2728.28 2002.38,2765.35 1987.11,2780.83 1980.09,2788.05 1949.88,2820.15 1922.18,2852.51">
            <param key="origId" value="-102848512#0"/>
        </lane>
    </edge>
    <edge id="1187633993" from="1187584563" to="1187584534" name="4700" priority="20" type="railway.rail" spreadType="center" shape="2793.30,2463.41 2788.76,2464.28 2760.93,2470.10 2720.83,2477.55 2653.31,2489.67" bidi="1187640428" distance="12458.69">
        <lane id="1187633993_0" index="0" allow="rail rail_electric rail_fast" speed="41.67" length="142.44" shape="2791.86,2463.69 2788.76,2464.28 2760.93,2470.10 2720.83,2477.55 2717.78,2478.10">
            <param key="origId" value="-123444521#0"/>
        </lane>
        <param key="railway:track_ref" value="4"/>
    </edge>
    <edge id="1187633994" from="2909736168" to="1376585929" name="4701" priority="20" type="railway.rail" spreadType="center" shape="9814.77,98.31 9833.89,90.21 9853.69,81.81 9892.79,67.22 9935.93,53.15 9981.23,40.17 10015.23,31.61 10056.42,22.88 10099.00,15.41 10139.59,9.42 10183.69,4.37 10225.11,1.52 10269.48,0.00" bidi="1187637686" distance="-19979.24">
        <lane id="1187633994_0" index="0" allow="rail rail_electric rail_fast" speed="33.33" length="468.23" shape="9814.89,98.26 9833.89,90.21 9853.69,81.81 9892.79,67.22 9935.93,53.15 9981.23,40.17 10015.23,31.61 10056.42,22.88 10099.00,15.41 10139.59,9.42 10183.69,4.37 10225.11,1.52 10269.48,-0.00">
            <param key="origId" value="-123444522#0"/>
        </lane>
    </edge>
    <edge id="1187633995" from="4238132862" to="2909736168" name="4701" priority="20" type="railway.rail" spreadType="center" shape="9410.04,373.39 9418.30,366.13 9508.30,286.75 9532.39,267.21 9556.49,248.47 9578.80,231.90 9630.93,196.70 9651.80,183.41 9684.87,163.64 9743.12,132.15 9771.90,117.86 9814.77,98.31" bidi="1187637687" distance="-19469.00">
        <lane id="1187633995_0" index="0" allow="rail rail_electric rail_fast" speed="33.33" length="491.98" shape="9410.15,373.29 9418.30,366.13 9508.30,286.75 9532.39,267.21 9556.49,248.47 9578.80,231.90 9630.93,196.70 9651.80,183.41 9684.87,163.64 9743.12,132.15 9771.90,117.86 9814.65,98.36">
            <param key="origId" value="-123444522#1"/>
        </lane>
    </edge>
    <edge id="1187633996" from="3804263093" to="4238132862" name="4701" priority="20" type="railway.rail" spreadType="center" shape="7447.94,739.70 7533.26,722.53 7637.14,701.54 7700.03,687.60 7744.27,677.74 7786.64,668.25 7814.33,662.24 7840.64,656.24 7876.27,648.76 7887.99,646.33 7913.15,641.29 7934.49,637.65 7953.01,634.72 7964.20,633.00 8001.80,628.05 8021.55,626.17 8040.23,624.52 8076.43,621.79 8112.73,620.43 8150.68,619.90 8189.52,620.27 8228.55,622.28 8267.95,625.16 8637.50,658.85 8712.80,663.14 8766.99,662.44 8801.59,660.68 8837.29,657.35 8853.35,655.19 8877.11,652.02 8905.85,646.45 8965.32,633.21 8998.83,623.75 9015.53,618.68 9060.90,602.59 9117.46,579.08 9169.58,553.18 9213.85,527.71 9262.24,496.10 9305.68,463.29 9352.74,424.10 9410.04,373.39" bidi="1187637688" distance="-17414.99">
        <lane id="1187633996_0" index="0" allow="rail rail_electric rail_fast" speed="33.33" length="2054.28" shape="7448.09,739.67 7533.26,722.53 7637.14,701.54 7700.03,687.60 7744.27,677.74 7786.64,668.25 7814.33,662.24 7840.64,656.24 7876.27,648.76 7887.99,646.33 7913.15,641.29 7934.49,637.65 7953.01,634.72 7964.20,633.00 8001.80,628.05 8021.55,626.17 8040.23,624.52 8076.43,621.79 8112.73,620.43 8150.68,619.90 8189.52,620.27 8228.55,622.28 8267.95,625.16 8637.50,658.85 8712.80,663.14 8766.99,662.44 8801.59,660.68 8837.29,657.35 8853.35,655.19 8877.11,652.02 8905.85,646.45 8965.32,633.21 8998.83,623.75 9015.53,618.68 9060.90,602.59 9117.46,579.08 9169.58,553.18 9213.85,527.71 9262.24,496.10 9305.68,463.29 9352.74,424.10 9409.93,373.49">
            <param key="origId" value="-123444522#2"/>
        </lane>
    </edge>
    <edge id="1187633997" from="2912581965" to="3804263093" name="4701" priority="20" type="railway.rail" spreadType="center" shape="6403.05,874.03 6421.79,872.48 6477.17,870.64 6561.26,871.64 6630.75,873.15 6698.73,873.30 6756.15,870.77 6785.21,868.38 6815.15,864.66 6869.43,856.67 6923.32,846.45 7026.90,825.35 7150.75,799.95 7296.80,770.36 7447.94,739.70" bidi="1187637689" distance="-16371.98">
        <lane id="1187633997_0" index="0" allow="rail rail_electric rail_fast" speed="33.33" length="1057.69" shape="6403.20,874.02 6421.79,872.48 6477.17,870.64 6561.26,871.64 6630.75,873.15 6698.73,873.30 6756.15,870.77 6785.21,868.38 6815.15,864.66 6869.43,856.67 6923.32,846.45 7026.90,825.35 7150.75,799.95 7296.80,770.36 7447.79,739.73">
            <param key="origId" value="-123444522#3"/>
        </lane>
    </edge>
    <edge id="1187633998" from="4237900765" to="2912581965" name="4701" priority="20" type="railway.rail" spreadType="center" shape="5374.84,1329.67 5437.51,1300.69 5460.24,1289.91 5477.34,1281.90 5510.95,1264.98 5543.66,1248.38 5551.23,1244.77 5626.61,1206.12 5668.50,1184.12 5710.35,1161.48 5727.10,1152.56 5768.89,1129.82 5792.40,1116.50 5898.20,1056.29 5961.54,1021.06 6003.92,997.98 6045.87,975.97 6077.51,960.78 6159.07,926.72 6195.46,914.57 6229.58,904.44 6264.68,895.79 6299.62,887.88 6323.66,883.70 6348.29,879.69 6384.28,875.67 6403.05,874.03" bidi="1187637690" distance="-15204.22">
        <lane id="1187633998_0" index="0" allow="rail rail_electric rail_fast" speed="33.33" length="1132.63" shape="5374.96,1329.62 5437.51,1300.69 5460.24,1289.91 5477.34,1281.90 5510.95,1264.98 5543.66,1248.38 5551.23,1244.77 5626.61,1206.12 5668.50,1184.12 5710.35,1161.48 5727.10,1152.56 5768.89,1129.82 5792.40,1116.50 5898.20,1056.29 5961.54,1021.06 6003.92,997.98 6045.87,975.97 6077.51,960.78 6159.07,926.72 6195.46,914.57 6229.58,904.44 6264.68,895.79 6299.62,887.88 6323.66,883.70 6348.29,879.69 6384.28,875.67 6402.90,874.04">
            <param key="origId" value="-123444522#4"/>
        </lane>
    </edge>
    <edge id="1187634117" from="1187584523" to="3963987334" priority="20" type="railway.rail" spreadType="center" shape="3780.51,2107.81 3718.74,2132.04 3670.95,2151.88 3572.22,2196.08 3457.19,2248.87 3418.66,2264.75 3377.62,2279.92 3340.09,2293.15 3299.63,2307.36 3224.57,2333.73 3184.31,2347.45 3139.12,2361.30 3076.98,2379.22" bidi="1187637140">
        <lane id="1187634117_0" index="0" allow="rail rail_electric rail_fast" speed="16.67" length="754.97" shape="3780.37,2107.86 3718.74,2132.04 3670.95,2151.88 3572.22,2196.08 3457.19,2248.87 3418.66,2264.75 3377.62,2279.92 3340.09,2293.15 3299.63,2307.36 3224.57,2333.73 3184.31,2347.45 3139.12,2361.30 3077.12,2379.18">
            <param key="origId" value="-156199092#0"/>
        </lane>
    </edge>
    <edge id="1187634118" from="1187584548" to="1187584523" priority="20" type="railway.rail" spreadType="center" bidi="1187637957">
        <lane id="1187634118_0" index="0" allow="rail rail_electric rail_fast" speed="16.67" length="47.10" shape="3822.77,2090.63 3780.65,2107.75">
            <param key="origId" value="-156199092#1"/>
        </lane>
    </edge>
    <edge id="1187634119" from="3963987315" to="4428948770" name="4701" priority="20" type="railway.rail" spreadType="center" shape="3391.94,2269.68 3393.25,2269.19 3416.82,2260.35 3448.80,2247.35 3478.27,2234.10 3492.80,2227.22 3527.95,2211.43 3560.70,2196.08 3565.87,2193.70 3569.51,2192.03 3620.03,2169.34 3667.40,2148.03 3670.12,2146.91 3690.45,2138.75 3721.16,2125.78" bidi="445470518" distance="12982.14">
        <lane id="1187634119_0" index="0" allow="rail rail_electric rail_fast" speed="27.78" length="359.39" shape="3392.08,2269.63 3393.25,2269.19 3416.82,2260.35 3448.80,2247.35 3478.27,2234.10 3492.80,2227.22 3527.95,2211.43 3560.70,2196.08 3565.87,2193.70 3569.51,2192.03 3620.03,2169.34 3667.40,2148.03 3670.12,2146.91 3690.45,2138.75 3721.02,2125.84">
            <param key="origId" value="-156199093#0"/>
        </lane>
    </edge>
    <edge id="1187634120" from="263337139" to="3963987315" name="4701" priority="20" type="railway.rail" spreadType="center" bidi="1187637959" distance="12990.49">
        <lane id="1187634120_0" index="0" allow="rail rail_electric rail_fast" speed="27.78" length="8.35" shape="3385.44,2272.13 3391.80,2269.73">
            <param key="origId" value="-156199093#1"/>
        </lane>
    </edge>
    <edge id="1187634121" from="1187584662" to="263337139" name="4701" priority="20" type="railway.rail" spreadType="center" shape="3166.86,2348.05 3199.18,2337.64 3223.28,2329.11 3278.09,2309.51 3328.03,2292.23 3375.16,2275.80 3384.13,2272.62" bidi="1187637960" distance="13220.49">
        <lane id="1187634121_0" index="0" allow="rail rail_electric rail_fast" speed="27.78" length="230.00" shape="3167.91,2347.71 3199.18,2337.64 3223.28,2329.11 3278.09,2309.51 3328.03,2292.23 3375.16,2275.80 3382.67,2273.14">
            <param key="origId" value="-156199093#2"/>
        </lane>
    </edge>
    <edge id="1187634122" from="3963987333" to="1187584662" name="4701" priority="20" type="railway.rail" spreadType="center" shape="3075.76,2374.90 3101.26,2367.49 3153.39,2352.32 3166.86,2348.05" bidi="1187637961" distance="13315.46">
        <lane id="1187634122_0" index="0" allow="rail rail_electric rail_fast" speed="27.78" length="94.98" shape="3075.76,2374.90 3101.26,2367.49 3153.39,2352.32 3165.05,2348.62">
            <param key="origId" value="-156199093#3"/>
        </lane>
    </edge>