<routes>
    <vehicle id="('de:vvs:10001_::1-T0-1',)" route="('de:vvs:10001_::1-T0-1',)" type="light_rail" depart="53700" line="('de:vvs:10001_::1-T0-1',)">
        <param key="gtfs.route_name" value="S1"/>
        <param key="gtfs.trip_headsign" value="Herrenberg"/>
    </vehicle>
    <vehicle id="('de:vvs:10001_::1-T0-10',)" route="('de:vvs:10001_::1-T0-1',)" type="light_rail" depart="66300" line="('de:vvs:10001_::1-T0-1',)">
        <param key="gtfs.route_name" value="S1"/>
        <param key="gtfs.trip_headsign" value="Herrenberg"/>
    </vehicle>
    <vehicle id="('de:vvs:10001_::1-T0-100',)" route="('de:vvs:10001_::1-T0-100',)" type="light_rail" depart="64320" line="('de:vvs:10001_::1-T0-100',)">
        <param key="gtfs.route_name" value="S1"/>
        <param key="gtfs.trip_headsign" value="Plochingen"/>
    </vehicle>
    <vehicle id="('de:vvs:10001_::1-T0-101',)" route="('de:vvs:10001_::1-T0-1',)" type="light_rail" depart="15900" line="('de:vvs:10001_::1-T0-1',)">
        <param key="gtfs.route_name" value="S1"/>
        <param key="gtfs.trip_headsign" value="Stuttgart Hauptbahnhof (oben)"/>
    </vehicle>
    <vehicle id="('de:vvs:10001_::1-T0-102',)" route="('de:vvs:10001_::1-T0-100',)" type="light_rail" depart="66120" line="('de:vvs:10001_::1-T0-100',)">
        <param key="gtfs.route_name" value="S1"/>
        <param key="gtfs.trip_headsign" value="Plochingen"/>
    </vehicle>
    <vehicle id="('de:vvs:10001_::1-T0-103',)" route="('de:vvs:10001_::1-T0-100',)" type="light_rail" depart="67020" line="('de:vvs:10001_::1-T0-100',)">
        <param key="gtfs.route_name" value="S1"/>
        <param key="gtfs.trip_headsign" value="Kirchheim (T)"/>
    </vehicle>
    <vehicle id="('de:vvs:10001_::1-T0-104',)" route="('de:vvs:10001_::1-T0-100',)" type="light_rail" depart="65220" line="('de:vvs:10001_::1-T0-100',)">
        <param key="gtfs.route_name" value="S1"/>
        <param key="gtfs.trip_headsign" value="Kirchheim (T)"/>
    </vehicle>
    <vehicle id="('de:vvs:10001_::1-T0-105',)" route="('de:vvs:10001_::1-T0-100',)" type="light_rail" depart="68820" line="('de:vvs:10001_::1-T0-100',)">
        <param key="gtfs.route_name" value="S1"/>
        <param key="gtfs.trip_headsign" value="Kirchheim (T)"/>
    </vehicle>
    <vehicle id="('de:vvs:10001_::1-T0-106',)" route="('de:vvs:10001_::1-T0-100',)" type="light_rail" depart="69720" line="('de:vvs:10001_::1-T0-100',)">
        <param key="gtfs.route_name" value="S1"/>
        <param key="gtfs.trip_headsign" value="Plochingen"/>
    </vehicle>
    <vehicle id="('de:vvs:10001_::1-T0-107',)" route="('de:vvs:10001_::1-T0-100',)" type="light_rail" depart="70620" line="('de:vvs:10001_::1-T0-100',)">
        <param key="gtfs.route_name" value="S1"/>
        <param key="gtfs.trip_headsign" value="Kirchheim (T)"/>
    </vehicle>
    <vehicle id="('de:vvs:10001_::1-T0-108',)" route="('de:vvs:10001_::1-T0-100',)" type="light_rail" depart="72420" line="('de:vvs:10001_::1-T0-100',)">
        <param key="gtfs.route_name" value="S1"/>
        <param key="gtfs.trip_headsign" value="Kirchheim (T)"/>
    </vehicle>
    <vehicle id="('de:vvs:10001_::1-T0-109',)" route="('de:vvs:10001_::1-T0-100',)" type="light_rail" depart="74220" line="('de:vvs:10001_::1-T0-100',)">
        <param key="gtfs.route_name" value="S1"/>
        <param key="gtfs.trip_headsign" value="Kirchheim (T)"/>
    </vehicle>
    <vehicle id="('de:vvs:10001_::1-T0-11',)" route="('de:vvs:10001_::1-T0-1',)" type="light_rail" depart="22200" line="('de:vvs:10001_::1-T0-1',)">
        <param key="gtfs.route_name" value="S1"/>
        <param key="gtfs.trip_headsign" value="Herrenberg"/>
    </vehicle>
    <vehicle id="('de:vvs:10001_::1-T0-110',)" route="('de:vvs:10001_::1-T0-100',)" type="light_rail" depart="76020" line="('de:vvs:10001_::1-T0-100',)">
        <param key="gtfs.route_name" value="S1"/>
        <param key="gtfs.trip_headsign" value="Kirchheim (T)"/>
    </vehicle>
    <vehicle id="('de:vvs:10001_::1-T0-111',)" route="('de:vvs:10001_::1-T0-100',)" type="light_rail" depart="77820" line="('de:vvs:10001_::1-T0-100',)">
        <param key="gtfs.route_name" value="S1"/>
        <param key="gtfs.trip_headsign" value="Kirchheim (T)"/>
    </vehicle>
    <vehicle id="('de:vvs:10001_::1-T0-112',)" route="('de:vvs:10001_::1-T0-100',)" type="light_rail" depart="79620" line="('de:vvs:10001_::1-T0-100',)">
        <param key="gtfs.route_name" value="S1"/>
        <param key="gtfs.trip_headsign" value="Kirchheim (T)"/>
    </vehicle>
    <vehicle id="('de:vvs:10001_::1-T0-113',)" route="('de:vvs:10001_::1-T0-100',)" type="light_rail" depart="81420" line="('de:vvs:10001_::1-T0-100',)">
        <param key="gtfs.route_name" value="S1"/>
        <param key="gtfs.trip_headsign" value="Kirchheim (T)"/>
    </vehicle>
    <vehicle id="('de:vvs:10001_::1-T0-114',)" route="('de:vvs:10001_::1-T0-100',)" type="light_rail" depart="83220" line="('de:vvs:10001_::1-T0-100',)">
        <param key="gtfs.route_name" value="S1"/>
        <param key="gtfs.trip_headsign" value="Kirchheim (T)"/>
    </vehicle>
    <vehicle id="('de:vvs:10001_::1-T0-115',)" route="('de:vvs:10001_::1-T0-100',)" type="light_rail" depart="85020" line="('de:vvs:10001_::1-T0-100',)">
        <param key="gtfs.route_name" value="S1"/>
        <param key="gtfs.trip_headsign" value="Kirchheim (T)"/>
    </vehicle>
    <vehicle id="('de:vvs:10001_::1-T0-116',)" route="('de:vvs:10001_::1-T0-100',)" type="light_rail" depart="86820" line="('de:vvs:10001_::1-T0-100',)">
        <param key="gtfs.route_name" value="S1"/>
        <param key="gtfs.trip_headsign" value="Kirchheim (T)"/>
    </vehicle>
    <vehicle id="('de:vvs:10001_::1-T0-116.trimmed',)" route="('de:vvs:10001_::1-T0-100',)" type="light_rail" depart="86820" line="('de:vvs:10001_::1-T0-100',)">
        <param key="gtfs.route_name" value="S1"/>
        <param key="gtfs.trip_headsign" value="Kirchheim (T)"/>
    </vehicle>
    <vehicle id="('de:vvs:10001_::1-T0-117',)" route="('de:vvs:10001_::1-T0-100',)" type="light_rail" depart="88620" line="('de:vvs:10001_::1-T0-100',)">
        <param key="gtfs.route_name" value="S1"/>
        <param key="gtfs.trip_headsign" value="Kirchheim (T)"/>
    </vehicle>
    <vehicle id="('de:vvs:10001_::1-T0-117.trimmed',)" route="('de:vvs:10001_::1-T0-100',)" type="light_rail" depart="88620" line="('de:vvs:10001_::1-T0-100',)">
        <param key="gtfs.route_name" value="S1"/>
        <param key="gtfs.trip_headsign" value="Kirchheim (T)"/>
    </vehicle>
    <vehicle id="('de:vvs:10001_::1-T0-118',)" route="('de:vvs:10001_::1-T0-1',)" type="light_rail" depart="16800" line="('de:vvs:10001_::1-T0-1',)">
        <param key="gtfs.route_name" value="S1"/>
        <param key="gtfs.trip_headsign" value="Herrenberg"/>
    </vehicle>
    <vehicle id="('de:vvs:10001_::1-T0-119',)" route="('de:vvs:10001_::1-T0-100',)" type="light_rail" depart="58020" line="('de:vvs:10001_::1-T0-100',)">
        <param key="gtfs.route_name" value="S1"/>
        <param key="gtfs.trip_headsign" value="Kirchheim (T)"/>
    </vehicle>
    <vehicle id="('de:vvs:10001_::1-T0-12',)" route="('de:vvs:10001_::1-T0-1',)" type="light_rail" depart="24000" line="('de:vvs:10001_::1-T0-1',)">
        <param key="gtfs.route_name" value="S1"/>
        <param key="gtfs.trip_headsign" value="Herrenberg"/>
    </vehicle>
    <vehicle id="('de:vvs:10001_::1-T0-120',)" route="('de:vvs:10001_::1-T0-1',)" type="light_rail" depart="19500" line="('de:vvs:10001_::1-T0-1',)">
        <param key="gtfs.route_name" value="S1"/>
        <param key="gtfs.trip_headsign" value="Herrenberg"/>
    </vehicle>
    <vehicle id="('de:vvs:10001_::1-T0-121',)" route="('de:vvs:10001_::1-T0-1',)" type="light_rail" depart="37500" line="('de:vvs:10001_::1-T0-1',)">
        <param key="gtfs.route_name" value="S1"/>
        <param key="gtfs.trip_headsign" value="Herrenberg"/>
    </vehicle>
    <vehicle id="('de:vvs:10001_::1-T0-122',)" route="('de:vvs:10001_::1-T0-1',)" type="light_rail" depart="23100" line="('de:vvs:10001_::1-T0-1',)">
        <param key="gtfs.route_name" value="S1"/>
        <param key="gtfs.trip_headsign" value="Herrenberg"/>
    </vehicle>
    <vehicle id="('de:vvs:10001_::1-T0-123',)" route="('de:vvs:10001_::1-T0-1',)" type="light_rail" depart="24900" line="('de:vvs:10001_::1-T0-1',)">
        <param key="gtfs.route_name" value="S1"/>
        <param key="gtfs.trip_headsign" value="Herrenberg"/>
    </vehicle>
    <vehicle id="('de:vvs:10001_::1-T0-124',)" route="('de:vvs:10001_::1-T0-1',)" type="light_rail" depart="26700" line="('de:vvs:10001_::1-T0-1',)">
        <param key="gtfs.route_name" value="S1"/>
        <param key="gtfs.trip_headsign" value="Herrenberg"/>
    </vehicle>
    <vehicle id="('de:vvs:10001_::1-T0-125',)" route="('de:vvs:10001_::1-T0-1',)" type="light_rail" depart="28500" line="('de:vvs:10001_::1-T0-1',)">
        <param key="gtfs.route_name" value="S1"/>
        <param key="gtfs.trip_headsign" value="Herrenberg"/>
    </vehicle>
    <vehicle id="('de:vvs:10001_::1-T0-127',)" route="('de:vvs:10001_::1-T0-1',)" type="light_rail" depart="55500" line="('de:vvs:10001_::1-T0-1',)">
        <param key="gtfs.route_name" value="S1"/>
        <param key="gtfs.trip_headsign" value="Herrenberg"/>
    </vehicle>
    <vehicle id="('de:vvs:10001_::1-T0-128',)" route="('de:vvs:10001_::1-T0-1',)" type="light_rail" depart="59100" line="('de:vvs:10001_::1-T0-1',)">
        <param key="gtfs.route_name" value="S1"/>
        <param key="gtfs.trip_headsign" value="Herrenberg"/>
    </vehicle>
    <vehicle id="('de:vvs:10001_::1-T0-129',)" route="('de:vvs:10001_::1-T0-1',)" type="light_rail" depart="60900" line="('de:vvs:10001_::1-T0-1',)">
        <param key="gtfs.route_name" value="S1"/>
        <param key="gtfs.trip_headsign" value="Herrenberg"/>
    </vehicle>
    <vehicle id="('de:vvs:10001_::1-T0-13',)" route="('de:vvs:10001_::1-T0-100',)" type="light_rail" depart="67920" line="('de:vvs:10001_::1-T0-100',)">
        <param key="gtfs.route_name" value="S1"/>
        <param key="gtfs.trip_headsign" value="Plochingen"/>
    </vehicle>
    <vehicle id="('de:vvs:10001_::1-T0-130',)" route="('de:vvs:10001_::1-T0-1',)" type="light_rail" depart="62700" line="('de:vvs:10001_::1-T0-1',)">
        <param key="gtfs.route_name" value="S1"/>
        <param key="gtfs.trip_headsign" value="Herrenberg"/>
    </vehicle>
    <vehicle id="('de:vvs:10001_::1-T0-131',)" route="('de:vvs:10001_::1-T0-1',)" type="light_rail" depart="64500" line="('de:vvs:10001_::1-T0-1',)">
        <param key="gtfs.route_name" value="S1"/>
        <param key="gtfs.trip_headsign" value="Herrenberg"/>
    </vehicle>
    <vehicle id="('de:vvs:10001_::1-T0-132',)" route="('de:vvs:10001_::1-T0-100',)" type="light_rail" depart="27420" line="('de:vvs:10001_::1-T0-100',)">
        <param key="gtfs.route_name" value="S1"/>
        <param key="gtfs.trip_headsign" value="Kirchheim (T)"/>
    </vehicle>
    <vehicle id="('de:vvs:10001_::1-T0-133',)" route="('de:vvs:10001_::1-T0-100',)" type="light_rail" depart="28320" line="('de:vvs:10001_::1-T0-100',)">
        <param key="gtfs.route_name" value="S1"/>
        <param key="gtfs.trip_headsign" value="Plochingen"/>
    </vehicle>
    <vehicle id="('de:vvs:10001_::1-T0-134',)" route="('de:vvs:10001_::1-T0-100',)" type="light_rail" depart="29220" line="('de:vvs:10001_::1-T0-100',)">
        <param key="gtfs.route_name" value="S1"/>
        <param key="gtfs.trip_headsign" value="Kirchheim (T)"/>
    </vehicle>
    <vehicle id="('de:vvs:10001_::1-T0-14',)" route="('de:vvs:10001_::1-T0-1',)" type="light_rail" depart="25800" line="('de:vvs:10001_::1-T0-1',)">
        <param key="gtfs.route_name" value="S1"/>
        <param key="gtfs.trip_headsign" value="Herrenberg"/>
    </vehicle>
    <vehicle id="('de:vvs:10001_::1-T0-141',)" route="('de:vvs:10001_::1-T0-1',)" type="light_rail" depart="39300" line="('de:vvs:10001_::1-T0-1',)">
        <param key="gtfs.route_name" value="S1"/>
        <param key="gtfs.trip_headsign" value="Herrenberg"/>
    </vehicle>
    <vehicle id="('de:vvs:10001_::1-T0-142',)" route="('de:vvs:10001_::1-T0-100',)" type="light_rail" depart="40920" line="('de:vvs:10001_::1-T0-100',)">
        <param key="gtfs.route_name" value="S1"/>
        <param key="gtfs.trip_headsign" value="Plochingen"/>
    </vehicle>
    <vehicle id="('de:vvs:10001_::1-T0-15',)" route="('de:vvs:10001_::1-T0-1',)" type="light_rail" depart="27600" line="('de:vvs:10001_::1-T0-1',)">
        <param key="gtfs.route_name" value="S1"/>
        <param key="gtfs.trip_headsign" value="Herrenberg"/>
    </vehicle>
    <vehicle id="('de:vvs:10001_::1-T0-152',)" route="('de:vvs:10001_::1-T0-1',)" type="light_rail" depart="14100" line="('de:vvs:10001_::1-T0-1',)">
        <param key="gtfs.route_name" value="S1"/>
        <param key="gtfs.trip_headsign" value="Vaihingen"/>
    </vehicle>
    <vehicle id="('de:vvs:10001_::1-T0-153',)" route="('de:vvs:10001_::1-T0-1',)" type="light_rail" depart="69900" line="('de:vvs:10001_::1-T0-1',)">
        <param key="gtfs.route_name" value="S1"/>
        <param key="gtfs.trip_headsign" value="Herrenberg"/>
    </vehicle>
    <vehicle id="('de:vvs:10001_::1-T0-154',)" route="('de:vvs:10001_::1-T0-1',)" type="light_rail" depart="71700" line="('de:vvs:10001_::1-T0-1',)">
        <param key="gtfs.route_name" value="S1"/>
        <param key="gtfs.trip_headsign" value="Herrenberg"/>
    </vehicle>
    <vehicle id="('de:vvs:10001_::1-T0-155',)" route="('de:vvs:10001_::1-T0-100',)" type="light_rail" depart="73320" line="('de:vvs:10001_::1-T0-100',)">
        <param key="gtfs.route_name" value="S1"/>
        <param key="gtfs.trip_headsign" value="Plochingen"/>
    </vehicle>
    <vehicle id="('de:vvs:10001_::1-T0-156',)" route="('de:vvs:10001_::1-T0-100',)" type="light_rail" depart="75120" line="('de:vvs:10001_::1-T0-100',)">
        <param key="gtfs.route_name" value="S1"/>
        <param key="gtfs.trip_headsign" value="Plochingen"/>
    </vehicle>
    <vehicle id="('de:vvs:10001_::1-T0-158',)" route="('de:vvs:10001_::1-T0-100',)" type="light_rail" depart="37320" line="('de:vvs:10001_::1-T0-100',)">
        <param key="gtfs.route_name" value="S1"/>
        <param key="gtfs.trip_headsign" value="Plochingen"/>
    </vehicle>
    <vehicle id="('de:vvs:10001_::1-T0-159',)" route="('de:vvs:10001_::1-T0-100',)" type="light_rail" depart="39120" line="('de:vvs:10001_::1-T0-100',)">
        <param key="gtfs.route_name" value="S1"/>
        <param key="gtfs.trip_headsign" value="Plochingen"/>
    </vehicle>
    <vehicle id="('de:vvs:10001_::1-T0-16',)" route="('de:vvs:10001_::1-T0-1',)" type="light_rail" depart="29400" line="('de:vvs:10001_::1-T0-1',)">
        <param key="gtfs.route_name" value="S1"/>
        <param key="gtfs.trip_headsign" value="Herrenberg"/>
    </vehicle>
    <vehicle id="('de:vvs:10001_::1-T0-160',)" route="('de:vvs:10001_::1-T0-1',)" type="light_rail" depart="33900" line="('de:vvs:10001_::1-T0-1',)">
        <param key="gtfs.route_name" value="S1"/>
        <param key="gtfs.trip_headsign" value="Herrenberg"/>
    </vehicle>
    <vehicle id="('de:vvs:10001_::1-T0-161',)" route="('de:vvs:10001_::1-T0-1',)" type="light_rail" depart="35700" line="('de:vvs:10001_::1-T0-1',)">
        <param key="gtfs.route_name" value="S1"/>
        <param key="gtfs.trip_headsign" value="Herrenberg"/>
    </vehicle>
    <vehicle id="('de:vvs:10001_::1-T0-162',)" route="('de:vvs:10001_::1-T0-1',)" type="light_rail" depart="21300" line="('de:vvs:10001_::1-T0-1',)">
        <param key="gtfs.route_name" value="S1"/>
        <param key="gtfs.trip_headsign" value="Herrenberg"/>
    </vehicle>
    <vehicle id="('de:vvs:10001_::1-T0-17',)" route="('de:vvs:10001_::1-T0-1',)" type="light_rail" depart="31200" line="('de:vvs:10001_::1-T0-1',)">
        <param key="gtfs.route_name" value="S1"/>
        <param key="gtfs.trip_headsign" value="Herrenberg"/>
    </vehicle>
    <vehicle id="('de:vvs:10001_::1-T0-178',)" route="('de:vvs:10001_::1-T0-1',)" type="light_rail" depart="30300" line="('de:vvs:10001_::1-T0-1',)">
        <param key="gtfs.route_name" value="S1"/>
        <param key="gtfs.trip_headsign" value="Herrenberg"/>
    </vehicle>
    <vehicle id="('de:vvs:10001_::1-T0-18',)" route="('de:vvs:10001_::1-T0-1',)" type="light_rail" depart="32100" line="('de:vvs:10001_::1-T0-1',)">
        <param key="gtfs.route_name" value="S1"/>
        <param key="gtfs.trip_headsign" value="Herrenberg"/>
    </vehicle>
    <vehicle id="('de:vvs:10001_::1-T0-19',)" route="('de:vvs:10001_::1-T0-1',)" type="light_rail" depart="33000" line="('de:vvs:10001_::1-T0-1',)">
        <param key="gtfs.route_name" value="S1"/>
        <param key="gtfs.trip_headsign" value="Herrenberg"/>
    </vehicle>
    <vehicle id="('de:vvs:10001_::1-T0-2',)" route="('de:vvs:10001_::1-T0-1',)" type="light_rail" depart="68100" line="('de:vvs:10001_::1-T0-1',)">
        <param key="gtfs.route_name" value="S1"/>
        <param key="gtfs.trip_headsign" value="Herrenberg"/>
    </vehicle>
    <vehicle id="('de:vvs:10001_::1-T0-20',)" route="('de:vvs:10001_::1-T0-1',)" type="light_rail" depart="34800" line="('de:vvs:10001_::1-T0-1',)">
        <param key="gtfs.route_name" value="S1"/>
        <param key="gtfs.trip_headsign" value="Herrenberg"/>
    </vehicle>
    <vehicle id="('de:vvs:10001_::1-T0-21',)" route="('de:vvs:10001_::1-T0-1',)" type="light_rail" depart="36600" line="('de:vvs:10001_::1-T0-1',)">
        <param key="gtfs.route_name" value="S1"/>
        <param key="gtfs.trip_headsign" value="Herrenberg"/>
    </vehicle>
    <vehicle id="('de:vvs:10001_::1-T0-22',)" route="('de:vvs:10001_::1-T0-1',)" type="light_rail" depart="38400" line="('de:vvs:10001_::1-T0-1',)">
        <param key="gtfs.route_name" value="S1"/>
        <param key="gtfs.trip_headsign" value="Herrenberg"/>
    </vehicle>
    <vehicle id="('de:vvs:10001_::1-T0-23',)" route="('de:vvs:10001_::1-T0-1',)" type="light_rail" depart="40200" line="('de:vvs:10001_::1-T0-1',)">
        <param key="gtfs.route_name" value="S1"/>
        <param key="gtfs.trip_headsign" value="Herrenberg"/>
    </vehicle>
    <vehicle id="('de:vvs:10001_::1-T0-24',)" route="('de:vvs:10001_::1-T0-1',)" type="light_rail" depart="41100" line="('de:vvs:10001_::1-T0-1',)">
        <param key="gtfs.route_name" value="S1"/>
        <param key="gtfs.trip_headsign" value="Herrenberg"/>
    </vehicle>
    <vehicle id="('de:vvs:10001_::1-T0-25',)" route="('de:vvs:10001_::1-T0-1',)" type="light_rail" depart="42000" line="('de:vvs:10001_::1-T0-1',)">
        <param key="gtfs.route_name" value="S1"/>
        <param key="gtfs.trip_headsign" value="Herrenberg"/>
    </vehicle>
    <vehicle id="('de:vvs:10001_::1-T0-26',)" route="('de:vvs:10001_::1-T0-1',)" type="light_rail" depart="42900" line="('de:vvs:10001_::1-T0-1',)">
        <param key="gtfs.route_name" value="S1"/>
        <param key="gtfs.trip_headsign" value="Herrenberg"/>
    </vehicle>
    <vehicle id="('de:vvs:10001_::1-T0-27',)" route="('de:vvs:10001_::1-T0-1',)" type="light_rail" depart="43800" line="('de:vvs:10001_::1-T0-1',)">
        <param key="gtfs.route_name" value="S1"/>
        <param key="gtfs.trip_headsign" value="Herrenberg"/>
    </vehicle>
    <vehicle id="('de:vvs:10001_::1-T0-28',)" route="('de:vvs:10001_::1-T0-1',)" type="light_rail" depart="44700" line="('de:vvs:10001_::1-T0-1',)">
        <param key="gtfs.route_name" value="S1"/>
        <param key="gtfs.trip_headsign" value="Herrenberg"/>
    </vehicle>
    <vehicle id="('de:vvs:10001_::1-T0-29',)" route="('de:vvs:10001_::1-T0-1',)" type="light_rail" depart="45600" line="('de:vvs:10001_::1-T0-1',)">
        <param key="gtfs.route_name" value="S1"/>
        <param key="gtfs.trip_headsign" value="Herrenberg"/>
    </vehicle>
    <vehicle id="('de:vvs:10001_::1-T0-3',)" route="('de:vvs:10001_::1-T0-100',)" type="light_rail" depart="71520" line="('de:vvs:10001_::1-T0-100',)">
        <param key="gtfs.route_name" value="S1"/>
        <param key="gtfs.trip_headsign" value="Plochingen"/>
    </vehicle>
    <vehicle id="('de:vvs:10001_::1-T0-30',)" route="('de:vvs:10001_::1-T0-1',)" type="light_rail" depart="46500" line="('de:vvs:10001_::1-T0-1',)">
        <param key="gtfs.route_name" value="S1"/>
        <param key="gtfs.trip_headsign" value="Herrenberg"/>
    </vehicle>
    <vehicle id="('de:vvs:10001_::1-T0-31',)" route="('de:vvs:10001_::1-T0-1',)" type="light_rail" depart="47400" line="('de:vvs:10001_::1-T0-1',)">
        <param key="gtfs.route_name" value="S1"/>
        <param key="gtfs.trip_headsign" value="Herrenberg"/>
    </vehicle>
    <vehicle id="('de:vvs:10001_::1-T0-32',)" route="('de:vvs:10001_::1-T0-1',)" type="light_rail" depart="48300" line="('de:vvs:10001_::1-T0-1',)">
        <param key="gtfs.route_name" value="S1"/>
        <param key="gtfs.trip_headsign" value="Herrenberg"/>
    </vehicle>
    <vehicle id="('de:vvs:10001_::1-T0-33',)" route="('de:vvs:10001_::1-T0-1',)" type="light_rail" depart="49200" line="('de:vvs:10001_::1-T0-1',)">
        <param key="gtfs.route_name" value="S1"/>
        <param key="gtfs.trip_headsign" value="Herrenberg"/>
    </vehicle>
    <vehicle id="('de:vvs:10001_::1-T0-34',)" route="('de:vvs:10001_::1-T0-1',)" type="light_rail" depart="50100" line="('de:vvs:10001_::1-T0-1',)">
        <param key="gtfs.route_name" value="S1"/>
        <param key="gtfs.trip_headsign" value="Herrenberg"/>
    </vehicle>
    <vehicle id="('de:vvs:10001_::1-T0-35',)" route="('de:vvs:10001_::1-T0-1',)" type="light_rail" depart="51000" line="('de:vvs:10001_::1-T0-1',)">
        <param key="gtfs.route_name" value="S1"/>
        <param key="gtfs.trip_headsign" value="Herrenberg"/>
    </vehicle>
    <vehicle id="('de:vvs:10001_::1-T0-36',)" route="('de:vvs:10001_::1-T0-1',)" type="light_rail" depart="51900" line="('de:vvs:10001_::1-T0-1',)">
        <param key="gtfs.route_name" value="S1"/>
        <param key="gtfs.trip_headsign" value="Herrenberg"/>
    </vehicle>
    <vehicle id="('de:vvs:10001_::1-T0-37',)" route="('de:vvs:10001_::1-T0-1',)" type="light_rail" depart="88800" line="('de:vvs:10001_::1-T0-1',)">
        <param key="gtfs.route_name" value="S1"/>
        <param key="gtfs.trip_headsign" value="Herrenberg"/>
    </vehicle>
    <vehicle id="('de:vvs:10001_::1-T0-38',)" route="('de:vvs:10001_::1-T0-1',)" type="light_rail" depart="52800" line="('de:vvs:10001_::1-T0-1',)">
        <param key="gtfs.route_name" value="S1"/>
        <param key="gtfs.trip_headsign" value="Herrenberg"/>
    </vehicle>
    <vehicle id="('de:vvs:10001_::1-T0-39',)" route="('de:vvs:10001_::1-T0-1',)" type="light_rail" depart="54600" line="('de:vvs:10001_::1-T0-1',)">
        <param key="gtfs.route_name" value="S1"/>
        <param key="gtfs.trip_headsign" value="Herrenberg"/>
    </vehicle>
    <vehicle id="('de:vvs:10001_::1-T0-4',)" route="('de:vvs:10001_::1-T0-1',)" type="light_rail" depart="57300" line="('de:vvs:10001_::1-T0-1',)">
        <param key="gtfs.route_name" value="S1"/>
        <param key="gtfs.trip_headsign" value="Herrenberg"/>
    </vehicle>
    <vehicle id="('de:vvs:10001_::1-T0-40',)" route="('de:vvs:10001_::1-T0-1',)" type="light_rail" depart="56400" line="('de:vvs:10001_::1-T0-1',)">
        <param key="gtfs.route_name" value="S1"/>
        <param key="gtfs.trip_headsign" value="Herrenberg"/>
    </vehicle>
    <vehicle id="('de:vvs:10001_::1-T0-41',)" route="('de:vvs:10001_::1-T0-1',)" type="light_rail" depart="58200" line="('de:vvs:10001_::1-T0-1',)">
        <param key="gtfs.route_name" value="S1"/>
        <param key="gtfs.trip_headsign" value="Herrenberg"/>
    </vehicle>
    <vehicle id="('de:vvs:10001_::1-T0-42',)" route="('de:vvs:10001_::1-T0-1',)" type="light_rail" depart="60000" line="('de:vvs:10001_::1-T0-1',)">
        <param key="gtfs.route_name" value="S1"/>
        <param key="gtfs.trip_headsign" value="Herrenberg"/>
    </vehicle>
    <vehicle id="('de:vvs:10001_::1-T0-43',)" route="('de:vvs:10001_::1-T0-1',)" type="light_rail" depart="61800" line="('de:vvs:10001_::1-T0-1',)">
        <param key="gtfs.route_name" value="S1"/>
        <param key="gtfs.trip_headsign" value="Herrenberg"/>
    </vehicle>
    <vehicle id="('de:vvs:10001_::1-T0-44',)" route="('de:vvs:10001_::1-T0-1',)" type="light_rail" depart="63600" line="('de:vvs:10001_::1-T0-1',)">
        <param key="gtfs.route_name" value="S1"/>
        <param key="gtfs.trip_headsign" value="Herrenberg"/>
    </vehicle>
    <vehicle id="('de:vvs:10001_::1-T0-45',)" route="('de:vvs:10001_::1-T0-1',)" type="light_rail" depart="65400" line="('de:vvs:10001_::1-T0-1',)">
        <param key="gtfs.route_name" value="S1"/>
        <param key="gtfs.trip_headsign" value="Herrenberg"/>
    </vehicle>
    <vehicle id="('de:vvs:10001_::1-T0-46',)" route="('de:vvs:10001_::1-T0-1',)" type="light_rail" depart="67200" line="('de:vvs:10001_::1-T0-1',)">
        <param key="gtfs.route_name" value="S1"/>
        <param key="gtfs.trip_headsign" value="Herrenberg"/>
    </vehicle>
    <vehicle id="('de:vvs:10001_::1-T0-47',)" route="('de:vvs:10001_::1-T0-1',)" type="light_rail" depart="69000" line="('de:vvs:10001_::1-T0-1',)">
        <param key="gtfs.route_name" value="S1"/>
        <param key="gtfs.trip_headsign" value="Herrenberg"/>
    </vehicle>
    <vehicle id="('de:vvs:10001_::1-T0-48',)" route="('de:vvs:10001_::1-T0-1',)" type="light_rail" depart="70800" line="('de:vvs:10001_::1-T0-1',)">
        <param key="gtfs.route_name" value="S1"/>
        <param key="gtfs.trip_headsign" value="Herrenberg"/>
    </vehicle>
    <vehicle id="('de:vvs:10001_::1-T0-49',)" route="('de:vvs:10001_::1-T0-1',)" type="light_rail" depart="72600" line="('de:vvs:10001_::1-T0-1',)">
        <param key="gtfs.route_name" value="S1"/>
        <param key="gtfs.trip_headsign" value="Herrenberg"/>
    </vehicle>
    <vehicle id="('de:vvs:10001_::1-T0-5',)" route="('de:vvs:10001_::1-T0-100',)" type="light_rail" depart="44520" line="('de:vvs:10001_::1-T0-100',)">
        <param key="gtfs.route_name" value="S1"/>
        <param key="gtfs.trip_headsign" value="Plochingen"/>
    </vehicle>
    <vehicle id="('de:vvs:10001_::1-T0-50',)" route="('de:vvs:10001_::1-T0-1',)" type="light_rail" depart="74400" line="('de:vvs:10001_::1-T0-1',)">
        <param key="gtfs.route_name" value="S1"/>
        <param key="gtfs.trip_headsign" value="Herrenberg"/>
    </vehicle>
    <vehicle id="('de:vvs:10001_::1-T0-51',)" route="('de:vvs:10001_::1-T0-1',)" type="light_rail" depart="76200" line="('de:vvs:10001_::1-T0-1',)">
        <param key="gtfs.route_name" value="S1"/>
        <param key="gtfs.trip_headsign" value="Herrenberg"/>
    </vehicle>
    <vehicle id="('de:vvs:10001_::1-T0-52',)" route="('de:vvs:10001_::1-T0-1',)" type="light_rail" depart="78000" line="('de:vvs:10001_::1-T0-1',)">
        <param key="gtfs.route_name" value="S1"/>
        <param key="gtfs.trip_headsign" value="Herrenberg"/>
    </vehicle>
    <vehicle id="('de:vvs:10001_::1-T0-53',)" route="('de:vvs:10001_::1-T0-1',)" type="light_rail" depart="79800" line="('de:vvs:10001_::1-T0-1',)">
        <param key="gtfs.route_name" value="S1"/>
        <param key="gtfs.trip_headsign" value="Herrenberg"/>
    </vehicle>
    <vehicle id="('de:vvs:10001_::1-T0-54',)" route="('de:vvs:10001_::1-T0-1',)" type="light_rail" depart="81600" line="('de:vvs:10001_::1-T0-1',)">
        <param key="gtfs.route_name" value="S1"/>
        <param key="gtfs.trip_headsign" value="Herrenberg"/>
    </vehicle>
    <vehicle id="('de:vvs:10001_::1-T0-55',)" route="('de:vvs:10001_::1-T0-1',)" type="light_rail" depart="83400" line="('de:vvs:10001_::1-T0-1',)">
        <param key="gtfs.route_name" value="S1"/>
        <param key="gtfs.trip_headsign" value="Herrenberg"/>
    </vehicle>
    <vehicle id="('de:vvs:10001_::1-T0-56',)" route="('de:vvs:10001_::1-T0-1',)" type="light_rail" depart="85200" line="('de:vvs:10001_::1-T0-1',)">
        <param key="gtfs.route_name" value="S1"/>
        <param key="gtfs.trip_headsign" value="Herrenberg"/>
    </vehicle>
    <vehicle id="('de:vvs:10001_::1-T0-57',)" route="('de:vvs:10001_::1-T0-1',)" type="light_rail" depart="87000" line="('de:vvs:10001_::1-T0-1',)">
        <param key="gtfs.route_name" value="S1"/>
        <param key="gtfs.trip_headsign" value="Herrenberg"/>
    </vehicle>
    <vehicle id="('de:vvs:10001_::1-T0-57.trimmed',)" route="('de:vvs:10001_::1-T0-1',)" type="light_rail" depart="87000" line="('de:vvs:10001_::1-T0-1',)">
        <param key="gtfs.route_name" value="S1"/>
        <param key="gtfs.trip_headsign" value="Herrenberg"/>
    </vehicle>
    <vehicle id="('de:vvs:10001_::1-T0-58',)" route="('de:vvs:10001_::1-T0-100',)" type="light_rail" depart="20220" line="('de:vvs:10001_::1-T0-100',)">
        <param key="gtfs.route_name" value="S1"/>
        <param key="gtfs.trip_headsign" value="Kirchheim (T)"/>
    </vehicle>
    <vehicle id="('de:vvs:10001_::1-T0-59',)" route="('de:vvs:10001_::1-T0-100',)" type="light_rail" depart="21120" line="('de:vvs:10001_::1-T0-100',)">
        <param key="gtfs.route_name" value="S1"/>
        <param key="gtfs.trip_headsign" value="Plochingen"/>
    </vehicle>
    <vehicle id="('de:vvs:10001_::1-T0-60',)" route="('de:vvs:10001_::1-T0-100',)" type="light_rail" depart="22020" line="('de:vvs:10001_::1-T0-100',)">
        <param key="gtfs.route_name" value="S1"/>
        <param key="gtfs.trip_headsign" value="Kirchheim (T)"/>
    </vehicle>
    <vehicle id="('de:vvs:10001_::1-T0-61',)" route="('de:vvs:10001_::1-T0-100',)" type="light_rail" depart="22920" line="('de:vvs:10001_::1-T0-100',)">
        <param key="gtfs.route_name" value="S1"/>
        <param key="gtfs.trip_headsign" value="Plochingen"/>
    </vehicle>
    <vehicle id="('de:vvs:10001_::1-T0-62',)" route="('de:vvs:10001_::1-T0-100',)" type="light_rail" depart="23820" line="('de:vvs:10001_::1-T0-100',)">
        <param key="gtfs.route_name" value="S1"/>
        <param key="gtfs.trip_headsign" value="Kirchheim (T)"/>