<routes>
    <vehicle id="('de:vvs:20007_::8-T0-10',)" route="('de:vvs:20007_::8-T0-10',)" type="subway" depart="22740" line="('de:vvs:20007_::8-T0-10',)">
        <param key="gtfs.route_name" value="U7"/>
        <param key="gtfs.trip_headsign" value="Nellingen Ostfildern"/>
    </vehicle>
    <vehicle id="('de:vvs:20007_::8-T0-101',)" route="('de:vvs:20007_::8-T0-10',)" type="subway" depart="49740" line="('de:vvs:20007_::8-T0-10',)">
        <param key="gtfs.route_name" value="U7"/>
        <param key="gtfs.trip_headsign" value="Nellingen Ostfildern"/>
    </vehicle>
    <vehicle id="('de:vvs:20007_::8-T0-103',)" route="('de:vvs:20007_::8-T0-10',)" type="subway" depart="50340" line="('de:vvs:20007_::8-T0-10',)">
        <param key="gtfs.route_name" value="U7"/>
        <param key="gtfs.trip_headsign" value="Nellingen Ostfildern"/>
    </vehicle>
    <vehicle id="('de:vvs:20007_::8-T0-105',)" route="('de:vvs:20007_::8-T0-10',)" type="subway" depart="50940" line="('de:vvs:20007_::8-T0-10',)">
        <param key="gtfs.route_name" value="U7"/>
        <param key="gtfs.trip_headsign" value="Nellingen Ostfildern"/>
    </vehicle>
    <vehicle id="('de:vvs:20007_::8-T0-107',)" route="('de:vvs:20007_::8-T0-10',)" type="subway" depart="51540" line="('de:vvs:20007_::8-T0-10',)">
        <param key="gtfs.route_name" value="U7"/>
        <param key="gtfs.trip_headsign" value="Nellingen Ostfildern"/>
    </vehicle>
    <vehicle id="('de:vvs:20007_::8-T0-109',)" route="('de:vvs:20007_::8-T0-10',)" type="subway" depart="52140" line="('de:vvs:20007_::8-T0-10',)">
        <param key="gtfs.route_name" value="U7"/>
        <param key="gtfs.trip_headsign" value="Nellingen Ostfildern"/>
    </vehicle>
    <vehicle id="('de:vvs:20007_::8-T0-111',)" route="('de:vvs:20007_::8-T0-10',)" type="subway" depart="52740" line="('de:vvs:20007_::8-T0-10',)">
        <param key="gtfs.route_name" value="U7"/>
        <param key="gtfs.trip_headsign" value="Nellingen Ostfildern"/>
    </vehicle>
    <vehicle id="('de:vvs:20007_::8-T0-113',)" route="('de:vvs:20007_::8-T0-10',)" type="subway" depart="53340" line="('de:vvs:20007_::8-T0-10',)">
        <param key="gtfs.route_name" value="U7"/>
        <param key="gtfs.trip_headsign" value="Nellingen Ostfildern"/>
    </vehicle>
    <vehicle id="('de:vvs:20007_::8-T0-115',)" route="('de:vvs:20007_::8-T0-10',)" type="subway" depart="53940" line="('de:vvs:20007_::8-T0-10',)">
        <param key="gtfs.route_name" value="U7"/>
        <param key="gtfs.trip_headsign" value="Nellingen Ostfildern"/>
    </vehicle>
    <vehicle id="('de:vvs:20007_::8-T0-117',)" route="('de:vvs:20007_::8-T0-10',)" type="subway" depart="54540" line="('de:vvs:20007_::8-T0-10',)">
        <param key="gtfs.route_name" value="U7"/>
        <param key="gtfs.trip_headsign" value="Nellingen Ostfildern"/>
    </vehicle>
    <vehicle id="('de:vvs:20007_::8-T0-119',)" route="('de:vvs:20007_::8-T0-10',)" type="subway" depart="55140" line="('de:vvs:20007_::8-T0-10',)">
        <param key="gtfs.route_name" value="U7"/>
        <param key="gtfs.trip_headsign" value="Nellingen Ostfildern"/>
    </vehicle>
    <vehicle id="('de:vvs:20007_::8-T0-12',)" route="('de:vvs:20007_::8-T0-10',)" type="subway" depart="23340" line="('de:vvs:20007_::8-T0-10',)">
        <param key="gtfs.route_name" value="U7"/>
        <param key="gtfs.trip_headsign" value="Nellingen Ostfildern"/>
    </vehicle>
    <vehicle id="('de:vvs:20007_::8-T0-121',)" route="('de:vvs:20007_::8-T0-10',)" type="subway" depart="55740" line="('de:vvs:20007_::8-T0-10',)">
        <param key="gtfs.route_name" value="U7"/>
        <param key="gtfs.trip_headsign" value="Nellingen Ostfildern"/>
    </vehicle>
    <vehicle id="('de:vvs:20007_::8-T0-123',)" route="('de:vvs:20007_::8-T0-10',)" type="subway" depart="56340" line="('de:vvs:20007_::8-T0-10',)">
        <param key="gtfs.route_name" value="U7"/>
        <param key="gtfs.trip_headsign" value="Nellingen Ostfildern"/>
    </vehicle>
    <vehicle id="('de:vvs:20007_::8-T0-125',)" route="('de:vvs:20007_::8-T0-10',)" type="subway" depart="56940" line="('de:vvs:20007_::8-T0-10',)">
        <param key="gtfs.route_name" value="U7"/>
        <param key="gtfs.trip_headsign" value="Nellingen Ostfildern"/>
    </vehicle>
    <vehicle id="('de:vvs:20007_::8-T0-127',)" route="('de:vvs:20007_::8-T0-10',)" type="subway" depart="57540" line="('de:vvs:20007_::8-T0-10',)">
        <param key="gtfs.route_name" value="U7"/>
        <param key="gtfs.trip_headsign" value="Nellingen Ostfildern"/>
    </vehicle>
    <vehicle id="('de:vvs:20007_::8-T0-129',)" route="('de:vvs:20007_::8-T0-10',)" type="subway" depart="58140" line="('de:vvs:20007_::8-T0-10',)">
        <param key="gtfs.route_name" value="U7"/>
        <param key="gtfs.trip_headsign" value="Nellingen Ostfildern"/>
    </vehicle>
    <vehicle id="('de:vvs:20007_::8-T0-131',)" route="('de:vvs:20007_::8-T0-10',)" type="subway" depart="58740" line="('de:vvs:20007_::8-T0-10',)">
        <param key="gtfs.route_name" value="U7"/>
        <param key="gtfs.trip_headsign" value="Nellingen Ostfildern"/>
    </vehicle>
    <vehicle id="('de:vvs:20007_::8-T0-133',)" route="('de:vvs:20007_::8-T0-10',)" type="subway" depart="59340" line="('de:vvs:20007_::8-T0-10',)">
        <param key="gtfs.route_name" value="U7"/>
        <param key="gtfs.trip_headsign" value="Nellingen Ostfildern"/>
    </vehicle>
    <vehicle id="('de:vvs:20007_::8-T0-135',)" route="('de:vvs:20007_::8-T0-10',)" type="subway" depart="59940" line="('de:vvs:20007_::8-T0-10',)">
        <param key="gtfs.route_name" value="U7"/>
        <param key="gtfs.trip_headsign" value="Nellingen Ostfildern"/>
    </vehicle>
    <vehicle id="('de:vvs:20007_::8-T0-137',)" route="('de:vvs:20007_::8-T0-10',)" type="subway" depart="60540" line="('de:vvs:20007_::8-T0-10',)">
        <param key="gtfs.route_name" value="U7"/>
        <param key="gtfs.trip_headsign" value="Nellingen Ostfildern"/>
    </vehicle>
    <vehicle id="('de:vvs:20007_::8-T0-139',)" route="('de:vvs:20007_::8-T0-10',)" type="subway" depart="61140" line="('de:vvs:20007_::8-T0-10',)">
        <param key="gtfs.route_name" value="U7"/>
        <param key="gtfs.trip_headsign" value="Nellingen Ostfildern"/>
    </vehicle>
    <vehicle id="('de:vvs:20007_::8-T0-14',)" route="('de:vvs:20007_::8-T0-10',)" type="subway" depart="23940" line="('de:vvs:20007_::8-T0-10',)">
        <param key="gtfs.route_name" value="U7"/>
        <param key="gtfs.trip_headsign" value="Nellingen Ostfildern"/>
    </vehicle>
    <vehicle id="('de:vvs:20007_::8-T0-141',)" route="('de:vvs:20007_::8-T0-10',)" type="subway" depart="61740" line="('de:vvs:20007_::8-T0-10',)">
        <param key="gtfs.route_name" value="U7"/>
        <param key="gtfs.trip_headsign" value="Nellingen Ostfildern"/>
    </vehicle>
    <vehicle id="('de:vvs:20007_::8-T0-143',)" route="('de:vvs:20007_::8-T0-10',)" type="subway" depart="62340" line="('de:vvs:20007_::8-T0-10',)">
        <param key="gtfs.route_name" value="U7"/>
        <param key="gtfs.trip_headsign" value="Nellingen Ostfildern"/>
    </vehicle>
    <vehicle id="('de:vvs:20007_::8-T0-145',)" route="('de:vvs:20007_::8-T0-10',)" type="subway" depart="62940" line="('de:vvs:20007_::8-T0-10',)">
        <param key="gtfs.route_name" value="U7"/>
        <param key="gtfs.trip_headsign" value="Nellingen Ostfildern"/>
    </vehicle>
    <vehicle id="('de:vvs:20007_::8-T0-147',)" route="('de:vvs:20007_::8-T0-10',)" type="subway" depart="63540" line="('de:vvs:20007_::8-T0-10',)">
        <param key="gtfs.route_name" value="U7"/>
        <param key="gtfs.trip_headsign" value="Nellingen Ostfildern"/>
    </vehicle>
    <vehicle id="('de:vvs:20007_::8-T0-149',)" route="('de:vvs:20007_::8-T0-10',)" type="subway" depart="64140" line="('de:vvs:20007_::8-T0-10',)">
        <param key="gtfs.route_name" value="U7"/>
        <param key="gtfs.trip_headsign" value="Nellingen Ostfildern"/>
    </vehicle>
    <vehicle id="('de:vvs:20007_::8-T0-151',)" route="('de:vvs:20007_::8-T0-10',)" type="subway" depart="64740" line="('de:vvs:20007_::8-T0-10',)">
        <param key="gtfs.route_name" value="U7"/>
        <param key="gtfs.trip_headsign" value="Nellingen Ostfildern"/>
    </vehicle>
    <vehicle id="('de:vvs:20007_::8-T0-153',)" route="('de:vvs:20007_::8-T0-10',)" type="subway" depart="65340" line="('de:vvs:20007_::8-T0-10',)">
        <param key="gtfs.route_name" value="U7"/>
        <param key="gtfs.trip_headsign" value="Nellingen Ostfildern"/>
    </vehicle>
    <vehicle id="('de:vvs:20007_::8-T0-155',)" route="('de:vvs:20007_::8-T0-10',)" type="subway" depart="65940" line="('de:vvs:20007_::8-T0-10',)">
        <param key="gtfs.route_name" value="U7"/>
        <param key="gtfs.trip_headsign" value="Nellingen Ostfildern"/>
    </vehicle>
    <vehicle id="('de:vvs:20007_::8-T0-157',)" route="('de:vvs:20007_::8-T0-10',)" type="subway" depart="66540" line="('de:vvs:20007_::8-T0-10',)">
        <param key="gtfs.route_name" value="U7"/>
        <param key="gtfs.trip_headsign" value="Nellingen Ostfildern"/>
    </vehicle>
    <vehicle id="('de:vvs:20007_::8-T0-159',)" route="('de:vvs:20007_::8-T0-10',)" type="subway" depart="67140" line="('de:vvs:20007_::8-T0-10',)">
        <param key="gtfs.route_name" value="U7"/>
        <param key="gtfs.trip_headsign" value="Nellingen Ostfildern"/>
    </vehicle>
    <vehicle id="('de:vvs:20007_::8-T0-16',)" route="('de:vvs:20007_::8-T0-10',)" type="subway" depart="24540" line="('de:vvs:20007_::8-T0-10',)">
        <param key="gtfs.route_name" value="U7"/>
        <param key="gtfs.trip_headsign" value="Nellingen Ostfildern"/>
    </vehicle>
    <vehicle id="('de:vvs:20007_::8-T0-161',)" route="('de:vvs:20007_::8-T0-10',)" type="subway" depart="67740" line="('de:vvs:20007_::8-T0-10',)">
        <param key="gtfs.route_name" value="U7"/>
        <param key="gtfs.trip_headsign" value="Nellingen Ostfildern"/>
    </vehicle>
    <vehicle id="('de:vvs:20007_::8-T0-163',)" route="('de:vvs:20007_::8-T0-10',)" type="subway" depart="68340" line="('de:vvs:20007_::8-T0-10',)">
        <param key="gtfs.route_name" value="U7"/>
        <param key="gtfs.trip_headsign" value="Nellingen Ostfildern"/>
    </vehicle>
    <vehicle id="('de:vvs:20007_::8-T0-165',)" route="('de:vvs:20007_::8-T0-10',)" type="subway" depart="68940" line="('de:vvs:20007_::8-T0-10',)">
        <param key="gtfs.route_name" value="U7"/>
        <param key="gtfs.trip_headsign" value="Nellingen Ostfildern"/>
    </vehicle>
    <vehicle id="('de:vvs:20007_::8-T0-167',)" route="('de:vvs:20007_::8-T0-10',)" type="subway" depart="69540" line="('de:vvs:20007_::8-T0-10',)">
        <param key="gtfs.route_name" value="U7"/>
        <param key="gtfs.trip_headsign" value="Nellingen Ostfildern"/>
    </vehicle>
    <vehicle id="('de:vvs:20007_::8-T0-169',)" route="('de:vvs:20007_::8-T0-10',)" type="subway" depart="70140" line="('de:vvs:20007_::8-T0-10',)">
        <param key="gtfs.route_name" value="U7"/>
        <param key="gtfs.trip_headsign" value="Nellingen Ostfildern"/>
    </vehicle>
    <vehicle id="('de:vvs:20007_::8-T0-171',)" route="('de:vvs:20007_::8-T0-10',)" type="subway" depart="70740" line="('de:vvs:20007_::8-T0-10',)">
        <param key="gtfs.route_name" value="U7"/>
        <param key="gtfs.trip_headsign" value="Nellingen Ostfildern"/>
    </vehicle>
    <vehicle id="('de:vvs:20007_::8-T0-173',)" route="('de:vvs:20007_::8-T0-10',)" type="subway" depart="71340" line="('de:vvs:20007_::8-T0-10',)">
        <param key="gtfs.route_name" value="U7"/>
        <param key="gtfs.trip_headsign" value="Nellingen Ostfildern"/>
    </vehicle>
    <vehicle id="('de:vvs:20007_::8-T0-175',)" route="('de:vvs:20007_::8-T0-10',)" type="subway" depart="71940" line="('de:vvs:20007_::8-T0-10',)">
        <param key="gtfs.route_name" value="U7"/>
        <param key="gtfs.trip_headsign" value="Nellingen Ostfildern"/>
    </vehicle>
    <vehicle id="('de:vvs:20007_::8-T0-177',)" route="('de:vvs:20007_::8-T0-10',)" type="subway" depart="72540" line="('de:vvs:20007_::8-T0-10',)">
        <param key="gtfs.route_name" value="U7"/>
        <param key="gtfs.trip_headsign" value="Nellingen Ostfildern"/>
    </vehicle>
    <vehicle id="('de:vvs:20007_::8-T0-179',)" route="('de:vvs:20007_::8-T0-10',)" type="subway" depart="73140" line="('de:vvs:20007_::8-T0-10',)">
        <param key="gtfs.route_name" value="U7"/>
        <param key="gtfs.trip_headsign" value="Nellingen Ostfildern"/>
    </vehicle>
    <vehicle id="('de:vvs:20007_::8-T0-18',)" route="('de:vvs:20007_::8-T0-10',)" type="subway" depart="25140" line="('de:vvs:20007_::8-T0-10',)">
        <param key="gtfs.route_name" value="U7"/>
        <param key="gtfs.trip_headsign" value="Nellingen Ostfildern"/>
    </vehicle>
    <vehicle id="('de:vvs:20007_::8-T0-181',)" route="('de:vvs:20007_::8-T0-10',)" type="subway" depart="73740" line="('de:vvs:20007_::8-T0-10',)">
        <param key="gtfs.route_name" value="U7"/>
        <param key="gtfs.trip_headsign" value="Nellingen Ostfildern"/>
    </vehicle>
    <vehicle id="('de:vvs:20007_::8-T0-183',)" route="('de:vvs:20007_::8-T0-10',)" type="subway" depart="74340" line="('de:vvs:20007_::8-T0-10',)">
        <param key="gtfs.route_name" value="U7"/>
        <param key="gtfs.trip_headsign" value="Nellingen Ostfildern"/>
    </vehicle>
    <vehicle id="('de:vvs:20007_::8-T0-185',)" route="('de:vvs:20007_::8-T0-10',)" type="subway" depart="75000" line="('de:vvs:20007_::8-T0-10',)">
        <param key="gtfs.route_name" value="U7"/>
        <param key="gtfs.trip_headsign" value="Nellingen Ostfildern"/>
    </vehicle>
    <vehicle id="('de:vvs:20007_::8-T0-189',)" route="('de:vvs:20007_::8-T0-10',)" type="subway" depart="75900" line="('de:vvs:20007_::8-T0-10',)">
        <param key="gtfs.route_name" value="U7"/>
        <param key="gtfs.trip_headsign" value="Nellingen Ostfildern"/>
    </vehicle>
    <vehicle id="('de:vvs:20007_::8-T0-191',)" route="('de:vvs:20007_::8-T0-10',)" type="subway" depart="76800" line="('de:vvs:20007_::8-T0-10',)">
        <param key="gtfs.route_name" value="U7"/>
        <param key="gtfs.trip_headsign" value="Nellingen Ostfildern"/>
    </vehicle>
    <vehicle id="('de:vvs:20007_::8-T0-195',)" route="('de:vvs:20007_::8-T0-10',)" type="subway" depart="77700" line="('de:vvs:20007_::8-T0-10',)">
        <param key="gtfs.route_name" value="U7"/>
        <param key="gtfs.trip_headsign" value="Nellingen Ostfildern"/>
    </vehicle>
    <vehicle id="('de:vvs:20007_::8-T0-197',)" route="('de:vvs:20007_::8-T0-10',)" type="subway" depart="78600" line="('de:vvs:20007_::8-T0-10',)">
        <param key="gtfs.route_name" value="U7"/>
        <param key="gtfs.trip_headsign" value="Nellingen Ostfildern"/>
    </vehicle>
    <vehicle id="('de:vvs:20007_::8-T0-2',)" route="('de:vvs:20007_::8-T0-10',)" type="subway" depart="19200" line="('de:vvs:20007_::8-T0-10',)">
        <param key="gtfs.route_name" value="U7"/>
        <param key="gtfs.trip_headsign" value="Nellingen Ostfildern"/>
    </vehicle>
    <vehicle id="('de:vvs:20007_::8-T0-20',)" route="('de:vvs:20007_::8-T0-10',)" type="subway" depart="25740" line="('de:vvs:20007_::8-T0-10',)">
        <param key="gtfs.route_name" value="U7"/>
        <param key="gtfs.trip_headsign" value="Nellingen Ostfildern"/>
    </vehicle>
    <vehicle id="('de:vvs:20007_::8-T0-201',)" route="('de:vvs:20007_::8-T0-10',)" type="subway" depart="79500" line="('de:vvs:20007_::8-T0-10',)">
        <param key="gtfs.route_name" value="U7"/>
        <param key="gtfs.trip_headsign" value="Nellingen Ostfildern"/>
    </vehicle>
    <vehicle id="('de:vvs:20007_::8-T0-203',)" route="('de:vvs:20007_::8-T0-10',)" type="subway" depart="80400" line="('de:vvs:20007_::8-T0-10',)">
        <param key="gtfs.route_name" value="U7"/>
        <param key="gtfs.trip_headsign" value="Nellingen Ostfildern"/>
    </vehicle>
    <vehicle id="('de:vvs:20007_::8-T0-205',)" route="('de:vvs:20007_::8-T0-10',)" type="subway" depart="81300" line="('de:vvs:20007_::8-T0-10',)">
        <param key="gtfs.route_name" value="U7"/>
        <param key="gtfs.trip_headsign" value="Nellingen Ostfildern"/>
    </vehicle>
    <vehicle id="('de:vvs:20007_::8-T0-207',)" route="('de:vvs:20007_::8-T0-10',)" type="subway" depart="82200" line="('de:vvs:20007_::8-T0-10',)">
        <param key="gtfs.route_name" value="U7"/>
        <param key="gtfs.trip_headsign" value="Nellingen Ostfildern"/>
    </vehicle>
    <vehicle id="('de:vvs:20007_::8-T0-209',)" route="('de:vvs:20007_::8-T0-10',)" type="subway" depart="83100" line="('de:vvs:20007_::8-T0-10',)">
        <param key="gtfs.route_name" value="U7"/>
        <param key="gtfs.trip_headsign" value="Nellingen Ostfildern"/>
    </vehicle>
    <vehicle id="('de:vvs:20007_::8-T0-211',)" route="('de:vvs:20007_::8-T0-10',)" type="subway" depart="84000" line="('de:vvs:20007_::8-T0-10',)">
        <param key="gtfs.route_name" value="U7"/>
        <param key="gtfs.trip_headsign" value="Nellingen Ostfildern"/>
    </vehicle>
    <vehicle id="('de:vvs:20007_::8-T0-213',)" route="('de:vvs:20007_::8-T0-10',)" type="subway" depart="84900" line="('de:vvs:20007_::8-T0-10',)">
        <param key="gtfs.route_name" value="U7"/>
        <param key="gtfs.trip_headsign" value="Nellingen Ostfildern"/>
    </vehicle>
    <vehicle id="('de:vvs:20007_::8-T0-215',)" route="('de:vvs:20007_::8-T0-10',)" type="subway" depart="85800" line="('de:vvs:20007_::8-T0-10',)">
        <param key="gtfs.route_name" value="U7"/>
        <param key="gtfs.trip_headsign" value="Nellingen Ostfildern"/>
    </vehicle>
    <vehicle id="('de:vvs:20007_::8-T0-217',)" route="('de:vvs:20007_::8-T0-10',)" type="subway" depart="86700" line="('de:vvs:20007_::8-T0-10',)">
        <param key="gtfs.route_name" value="U7"/>
        <param key="gtfs.trip_headsign" value="Nellingen Ostfildern"/>
    </vehicle>
    <vehicle id="('de:vvs:20007_::8-T0-217.trimmed',)" route="('de:vvs:20007_::8-T0-10',)" type="subway" depart="86700" line="('de:vvs:20007_::8-T0-10',)">
        <param key="gtfs.route_name" value="U7"/>
        <param key="gtfs.trip_headsign" value="Nellingen Ostfildern"/>
    </vehicle>
    <vehicle id="('de:vvs:20007_::8-T0-219',)" route="('de:vvs:20007_::8-T0-10',)" type="subway" depart="87600" line="('de:vvs:20007_::8-T0-10',)">
        <param key="gtfs.route_name" value="U7"/>
        <param key="gtfs.trip_headsign" value="Nellingen Ostfildern"/>
    </vehicle>
    <vehicle id="('de:vvs:20007_::8-T0-219.trimmed',)" route="('de:vvs:20007_::8-T0-10',)" type="subway" depart="87600" line="('de:vvs:20007_::8-T0-10',)">
        <param key="gtfs.route_name" value="U7"/>
        <param key="gtfs.trip_headsign" value="Nellingen Ostfildern"/>
    </vehicle>
    <vehicle id="('de:vvs:20007_::8-T0-22',)" route="('de:vvs:20007_::8-T0-10',)" type="subway" depart="26340" line="('de:vvs:20007_::8-T0-10',)">
        <param key="gtfs.route_name" value="U7"/>
        <param key="gtfs.trip_headsign" value="Nellingen Ostfildern"/>
    </vehicle>
    <vehicle id="('de:vvs:20007_::8-T0-221',)" route="('de:vvs:20007_::8-T0-10',)" type="subway" depart="88500" line="('de:vvs:20007_::8-T0-10',)">
        <param key="gtfs.route_name" value="U7"/>
        <param key="gtfs.trip_headsign" value="Nellingen Ostfildern"/>
    </vehicle>
    <vehicle id="('de:vvs:20007_::8-T0-221.trimmed',)" route="('de:vvs:20007_::8-T0-10',)" type="subway" depart="88500" line="('de:vvs:20007_::8-T0-10',)">
        <param key="gtfs.route_name" value="U7"/>
        <param key="gtfs.trip_headsign" value="Nellingen Ostfildern"/>
    </vehicle>
    <vehicle id="('de:vvs:20007_::8-T0-223',)" route="('de:vvs:20007_::8-T0-10',)" type="subway" depart="89400" line="('de:vvs:20007_::8-T0-10',)">
        <param key="gtfs.route_name" value="U7"/>
        <param key="gtfs.trip_headsign" value="Nellingen Ostfildern"/>
    </vehicle>
    <vehicle id="('de:vvs:20007_::8-T0-239',)" route="('de:vvs:20007_::8-T0-239',)" type="subway" depart="17280" line="('de:vvs:20007_::8-T0-239',)">
        <param key="gtfs.route_name" value="U7"/>
        <param key="gtfs.trip_headsign" value="Mönchfeld"/>
    </vehicle>
    <vehicle id="('de:vvs:20007_::8-T0-24',)" route="('de:vvs:20007_::8-T0-10',)" type="subway" depart="26940" line="('de:vvs:20007_::8-T0-10',)">
        <param key="gtfs.route_name" value="U7"/>
        <param key="gtfs.trip_headsign" value="Nellingen Ostfildern"/>
    </vehicle>
    <vehicle id="('de:vvs:20007_::8-T0-243',)" route="('de:vvs:20007_::8-T0-239',)" type="subway" depart="18180" line="('de:vvs:20007_::8-T0-239',)">
        <param key="gtfs.route_name" value="U7"/>
        <param key="gtfs.trip_headsign" value="Mönchfeld"/>
    </vehicle>
    <vehicle id="('de:vvs:20007_::8-T0-245',)" route="('de:vvs:20007_::8-T0-239',)" type="subway" depart="19080" line="('de:vvs:20007_::8-T0-239',)">
        <param key="gtfs.route_name" value="U7"/>
        <param key="gtfs.trip_headsign" value="Mönchfeld"/>
    </vehicle>
    <vehicle id="('de:vvs:20007_::8-T0-249',)" route="('de:vvs:20007_::8-T0-239',)" type="subway" depart="19980" line="('de:vvs:20007_::8-T0-239',)">
        <param key="gtfs.route_name" value="U7"/>
        <param key="gtfs.trip_headsign" value="Mönchfeld"/>
    </vehicle>
    <vehicle id="('de:vvs:20007_::8-T0-251',)" route="('de:vvs:20007_::8-T0-239',)" type="subway" depart="20880" line="('de:vvs:20007_::8-T0-239',)">
        <param key="gtfs.route_name" value="U7"/>
        <param key="gtfs.trip_headsign" value="Mönchfeld"/>
    </vehicle>
    <vehicle id="('de:vvs:20007_::8-T0-255',)" route="('de:vvs:20007_::8-T0-239',)" type="subway" depart="21480" line="('de:vvs:20007_::8-T0-239',)">
        <param key="gtfs.route_name" value="U7"/>
        <param key="gtfs.trip_headsign" value="Mönchfeld"/>
    </vehicle>
    <vehicle id="('de:vvs:20007_::8-T0-257',)" route="('de:vvs:20007_::8-T0-239',)" type="subway" depart="22080" line="('de:vvs:20007_::8-T0-239',)">
        <param key="gtfs.route_name" value="U7"/>
        <param key="gtfs.trip_headsign" value="Mönchfeld"/>
    </vehicle>
    <vehicle id="('de:vvs:20007_::8-T0-259',)" route="('de:vvs:20007_::8-T0-239',)" type="subway" depart="22680" line="('de:vvs:20007_::8-T0-239',)">
        <param key="gtfs.route_name" value="U7"/>
        <param key="gtfs.trip_headsign" value="Mönchfeld"/>
    </vehicle>
    <vehicle id="('de:vvs:20007_::8-T0-26',)" route="('de:vvs:20007_::8-T0-10',)" type="subway" depart="27540" line="('de:vvs:20007_::8-T0-10',)">
        <param key="gtfs.route_name" value="U7"/>
        <param key="gtfs.trip_headsign" value="Nellingen Ostfildern"/>
    </vehicle>
    <vehicle id="('de:vvs:20007_::8-T0-261',)" route="('de:vvs:20007_::8-T0-239',)" type="subway" depart="23280" line="('de:vvs:20007_::8-T0-239',)">
        <param key="gtfs.route_name" value="U7"/>
        <param key="gtfs.trip_headsign" value="Mönchfeld"/>
    </vehicle>
    <vehicle id="('de:vvs:20007_::8-T0-263',)" route="('de:vvs:20007_::8-T0-239',)" type="subway" depart="23880" line="('de:vvs:20007_::8-T0-239',)">
        <param key="gtfs.route_name" value="U7"/>
        <param key="gtfs.trip_headsign" value="Mönchfeld"/>
    </vehicle>
    <vehicle id="('de:vvs:20007_::8-T0-265',)" route="('de:vvs:20007_::8-T0-239',)" type="subway" depart="24480" line="('de:vvs:20007_::8-T0-239',)">
        <param key="gtfs.route_name" value="U7"/>
        <param key="gtfs.trip_headsign" value="Mönchfeld"/>
    </vehicle>
    <vehicle id="('de:vvs:20007_::8-T0-267',)" route="('de:vvs:20007_::8-T0-239',)" type="subway" depart="25080" line="('de:vvs:20007_::8-T0-239',)">
        <param key="gtfs.route_name" value="U7"/>
        <param key="gtfs.trip_headsign" value="Mönchfeld"/>
    </vehicle>
    <vehicle id="('de:vvs:20007_::8-T0-269',)" route="('de:vvs:20007_::8-T0-239',)" type="subway" depart="25680" line="('de:vvs:20007_::8-T0-239',)">
        <param key="gtfs.route_name" value="U7"/>
        <param key="gtfs.trip_headsign" value="Mönchfeld"/>
    </vehicle>
    <vehicle id="('de:vvs:20007_::8-T0-271',)" route="('de:vvs:20007_::8-T0-239',)" type="subway" depart="26280" line="('de:vvs:20007_::8-T0-239',)">
        <param key="gtfs.route_name" value="U7"/>
        <param key="gtfs.trip_headsign" value="Mönchfeld"/>
    </vehicle>
    <vehicle id="('de:vvs:20007_::8-T0-274',)" route="('de:vvs:20007_::8-T0-239',)" type="subway" depart="26880" line="('de:vvs:20007_::8-T0-239',)">
        <param key="gtfs.route_name" value="U7"/>
        <param key="gtfs.trip_headsign" value="Mönchfeld"/>
    </vehicle>
    <vehicle id="('de:vvs:20007_::8-T0-276',)" route="('de:vvs:20007_::8-T0-239',)" type="subway" depart="27480" line="('de:vvs:20007_::8-T0-239',)">
        <param key="gtfs.route_name" value="U7"/>
        <param key="gtfs.trip_headsign" value="Mönchfeld"/>
    </vehicle>
    <vehicle id="('de:vvs:20007_::8-T0-278',)" route="('de:vvs:20007_::8-T0-239',)" type="subway" depart="28080" line="('de:vvs:20007_::8-T0-239',)">
        <param key="gtfs.route_name" value="U7"/>
        <param key="gtfs.trip_headsign" value="Mönchfeld"/>
    </vehicle>
    <vehicle id="('de:vvs:20007_::8-T0-28',)" route="('de:vvs:20007_::8-T0-10',)" type="subway" depart="28140" line="('de:vvs:20007_::8-T0-10',)">
        <param key="gtfs.route_name" value="U7"/>
        <param key="gtfs.trip_headsign" value="Nellingen Ostfildern"/>
    </vehicle>
    <vehicle id="('de:vvs:20007_::8-T0-280',)" route="('de:vvs:20007_::8-T0-239',)" type="subway" depart="28680" line="('de:vvs:20007_::8-T0-239',)">
        <param key="gtfs.route_name" value="U7"/>
        <param key="gtfs.trip_headsign" value="Mönchfeld"/>
    </vehicle>
    <vehicle id="('de:vvs:20007_::8-T0-282',)" route="('de:vvs:20007_::8-T0-239',)" type="subway" depart="29280" line="('de:vvs:20007_::8-T0-239',)">
        <param key="gtfs.route_name" value="U7"/>
        <param key="gtfs.trip_headsign" value="Mönchfeld"/>
    </vehicle>
    <vehicle id="('de:vvs:20007_::8-T0-284',)" route="('de:vvs:20007_::8-T0-239',)" type="subway" depart="29880" line="('de:vvs:20007_::8-T0-239',)">
        <param key="gtfs.route_name" value="U7"/>
        <param key="gtfs.trip_headsign" value="Mönchfeld"/>
    </vehicle>
    <vehicle id="('de:vvs:20007_::8-T0-286',)" route="('de:vvs:20007_::8-T0-239',)" type="subway" depart="30480" line="('de:vvs:20007_::8-T0-239',)">
        <param key="gtfs.route_name" value="U7"/>
        <param key="gtfs.trip_headsign" value="Mönchfeld"/>
    </vehicle>
    <vehicle id="('de:vvs:20007_::8-T0-288',)" route="('de:vvs:20007_::8-T0-239',)" type="subway" depart="31080" line="('de:vvs:20007_::8-T0-239',)">
        <param key="gtfs.route_name" value="U7"/>
        <param key="gtfs.trip_headsign" value="Mönchfeld"/>
    </vehicle>
    <vehicle id="('de:vvs:20007_::8-T0-290',)" route="('de:vvs:20007_::8-T0-239',)" type="subway" depart="31680" line="('de:vvs:20007_::8-T0-239',)">
        <param key="gtfs.route_name" value="U7"/>
        <param key="gtfs.trip_headsign" value="Mönchfeld"/>
    </vehicle>
    <vehicle id="('de:vvs:20007_::8-T0-292',)" route="('de:vvs:20007_::8-T0-239',)" type="subway" depart="32280" line="('de:vvs:20007_::8-T0-239',)">
        <param key="gtfs.route_name" value="U7"/>
        <param key="gtfs.trip_headsign" value="Mönchfeld"/>
    </vehicle>
    <vehicle id="('de:vvs:20007_::8-T0-294',)" route="('de:vvs:20007_::8-T0-239',)" type="subway" depart="32880" line="('de:vvs:20007_::8-T0-239',)">
        <param key="gtfs.route_name" value="U7"/>
        <param key="gtfs.trip_headsign" value="Mönchfeld"/>
    </vehicle>
    <vehicle id="('de:vvs:20007_::8-T0-296',)" route="('de:vvs:20007_::8-T0-239',)" type="subway" depart="33480" line="('de:vvs:20007_::8-T0-239',)">
        <param key="gtfs.route_name" value="U7"/>
        <param key="gtfs.trip_headsign" value="Mönchfeld"/>
    </vehicle>
    <vehicle id="('de:vvs:20007_::8-T0-298',)" route="('de:vvs:20007_::8-T0-239',)" type="subway" depart="34080" line="('de:vvs:20007_::8-T0-239',)">
        <param key="gtfs.route_name" value="U7"/>
        <param key="gtfs.trip_headsign" value="Mönchfeld"/>
    </vehicle>
    <vehicle id="('de:vvs:20007_::8-T0-30',)" route="('de:vvs:20007_::8-T0-10',)" type="subway" depart="28740" line="('de:vvs:20007_::8-T0-10',)">
        <param key="gtfs.route_name" value="U7"/>
        <param key="gtfs.trip_headsign" value="Nellingen Ostfildern"/>
    </vehicle>
    <vehicle id="('de:vvs:20007_::8-T0-300',)" route="('de:vvs:20007_::8-T0-239',)" type="subway" depart="34680" line="('de:vvs:20007_::8-T0-239',)">
        <param key="gtfs.route_name" value="U7"/>
        <param key="gtfs.trip_headsign" value="Mönchfeld"/>
    </vehicle>
    <vehicle id="('de:vvs:20007_::8-T0-302',)" route="('de:vvs:20007_::8-T0-239',)" type="subway" depart="35280" line="('de:vvs:20007_::8-T0-239',)">
        <param key="gtfs.route_name" value="U7"/>
        <param key="gtfs.trip_headsign" value="Mönchfeld"/>
    </vehicle>
    <vehicle id="('de:vvs:20007_::8-T0-304',)" route="('de:vvs:20007_::8-T0-239',)" type="subway" depart="35880" line="('de:vvs:20007_::8-T0-239',)">
        <param key="gtfs.route_name" value="U7"/>
        <param key="gtfs.trip_headsign" value="Mönchfeld"/>
    </vehicle>
    <vehicle id="('de:vvs:20007_::8-T0-306',)" route="('de:vvs:20007_::8-T0-239',)" type="subway" depart="36480" line="('de:vvs:20007_::8-T0-239',)">
        <param key="gtfs.route_name" value="U7"/>
        <param key="gtfs.trip_headsign" value="Mönchfeld"/>
    </vehicle>
    <vehicle id="('de:vvs:20007_::8-T0-308',)" route="('de:vvs:20007_::8-T0-239',)" type="subway" depart="37080" line="('de:vvs:20007_::8-T0-239',)">
        <param key="gtfs.route_name" value="U7"/>
        <param key="gtfs.trip_headsign" value="Mönchfeld"/>
    </vehicle>
    <vehicle id="('de:vvs:20007_::8-T0-310',)" route="('de:vvs:20007_::8-T0-239',)" type="subway" depart="37680" line="('de:vvs:20007_::8-T0-239',)">