<routes>
  <person id="p0" depart="21600.00">
    <personTrip from="-38478976#2" to="290461455#1" line="ANY" modes="public"/>
    <stop duration="39514" edge="290461455#1" actType="singing"/>
    <personTrip from="290461455#1" to="-38478976#2" line="ANY" modes="public"/>
    <stop duration="31972" edge="-38478976#2" actType="singing"/>
    <personTrip from="-38478976#2" to="54883366#2" line="ANY" vTypes="motorcycle"/>
    <stop duration="36019" edge="54883366#2" actType="singing"/>
    <personTrip from="54883366#2" to="-38478976#2" line="ANY" modes="public"/>
    <stop duration="5030" edge="-38478976#2" actType="singing"/>
    <personTrip from="-38478976#2" to="23176406" line="ANY" modes="public"/>
    <stop duration="33821" edge="23176406" actType="singing"/>
    <personTrip from="23176406" to="-38478976#2" line="ANY" modes="public"/>
    <stop duration="35740" edge="-38478976#2" actType="singing"/>
    <personTrip from="-38478976#2" to="23176406" line="ANY" vTypes="passenger"/>
    <stop duration="29082" edge="23176406" actType="singing"/>
    <personTrip from="23176406" to="31626938#2" line="ANY" modes="public"/>
    <personTrip from="31626938#2" to="-38478976#2" line="ANY" vTypes="bicycle"/>
    <stop duration="30478" edge="-38478976#2" actType="singing"/>
    <personTrip from="-38478976#2" to="23184031" line="ANY" vTypes="motorcycle"/>
    <stop duration="29086" edge="23184031" actType="singing"/>
    <personTrip from="23184031" to="-23184009#4" line="ANY" modes="public"/>
    <personTrip from="-23184009#4" to="-70531940" line="ANY" vTypes="bicycle"/>
    <stop duration="41964" edge="-70531940" actType="singing"/>
  </person>
  <person id="p1" depart="21600.00">
    <personTrip from="-38478976#2" to="23176406" line="ANY" vTypes="passenger"/>
    <stop duration="31868" edge="23176406" actType="singing"/>
    <personTrip from="23176406" to="281967839#1" line="ANY" modes="public"/>
    <stop duration="31082" edge="281967839#1" actType="singing"/>
    <personTrip from="281967839#1" to="-8026683#1" line="ANY" modes="public"/>
    <personTrip from="-8026683#1" to="288809225#1" line="ANY" vTypes="bicycle"/>
    <stop duration="42739" edge="288809225#1" actType="singing"/>
    <personTrip from="288809225#1" to="26263195#1" line="ANY" modes="public"/>
    <personTrip from="26263195#1" to="4811293" line="ANY" vTypes="passenger"/>
    <stop duration="31564" edge="4811293" actType="singing"/>
    <personTrip from="4811293" to="-24510734#1" line="ANY" modes="public"/>
    <personTrip from="-24510734#1" to="-38478976#2" line="ANY" vTypes="bicycle"/>
    <stop duration="49413" edge="-38478976#2" actType="singing"/>
    <personTrip from="-38478976#2" to="23176406" line="ANY" vTypes="bicycle"/>
    <stop duration="33963" edge="23176406" actType="singing"/>
    <personTrip from="23176406" to="31626956#0" line="ANY" modes="public"/>
    <stop duration="38346" edge="31626956#0" actType="singing"/>
    <personTrip from="31626956#0" to="-38478976#2" line="ANY" modes="public"/>
    <stop duration="40361" edge="-38478976#2" actType="singing"/>
    <personTrip from="-38478976#2" to="823051186#3" line="ANY" vTypes="bicycle"/>
    <stop duration="34712" edge="823051186#3" actType="singing"/>
    <personTrip from="823051186#3" to="23312959#2" line="ANY" modes="public"/>
    <stop duration="42416" edge="23312959#2" actType="singing"/>
  </person>
  <person id="p2" depart="21600.00">
    <personTrip from="-38478976#2" to="-26735019" line="ANY" vTypes="bicycle"/>
    <stop duration="29203" edge="-26735019" actType="singing"/>
    <personTrip from="-26735019" to="-38478976#2" line="ANY" vTypes="bicycle"/>
    <stop duration="5694" edge="-38478976#2" actType="singing"/>
    <personTrip from="-38478976#2" to="23184031" line="ANY" modes="public"/>
    <stop duration="31710" edge="23184031" actType="singing"/>
    <personTrip from="23184031" to="-29139334" line="ANY" modes="public"/>
    <personTrip from="-29139334" to="-38478976#2" line="ANY" vTypes="bicycle"/>
    <stop duration="40989" edge="-38478976#2" actType="singing"/>
    <personTrip from="-38478976#2" to="-42326258#0" line="ANY" modes="public"/>
    <stop duration="35153" edge="-42326258#0" actType="singing"/>
    <personTrip from="-42326258#0" to="-38478976#2" line="ANY" vTypes="passenger"/>
    <stop duration="31916" edge="-38478976#2" actType="singing"/>
    <personTrip from="-38478976#2" to="-26735019" line="ANY" modes="public"/>
    <stop duration="25522" edge="-26735019" actType="singing"/>
    <personTrip from="-26735019" to="-23316380#0" line="ANY" vTypes="bicycle"/>
    <stop duration="29195" edge="-23316380#0" actType="singing"/>
    <personTrip from="-23316380#0" to="-38478976#2" line="ANY" modes="public"/>
    <stop duration="47775" edge="-38478976#2" actType="singing"/>
    <personTrip from="-38478976#2" to="692560998" line="ANY" vTypes="bicycle"/>
    <stop duration="42987" edge="692560998" actType="singing"/>
  </person>
  <person id="p3" depart="21600.00">
    <personTrip from="-38478976#2" to="158355467#5" line="ANY" vTypes="bicycle"/>
    <stop duration="16113" edge="158355467#5" actType="singing"/>
    <personTrip from="158355467#5" to="-22889927#4" line="ANY" vTypes="bicycle"/>
    <stop duration="34320" edge="-22889927#4" actType="singing"/>
    <personTrip from="-22889927#4" to="112518515#1" line="ANY" modes="public"/>
    <stop duration="45780" edge="112518515#1" actType="singing"/>
    <personTrip from="112518515#1" to="823051188#1" line="ANY" modes="public"/>
    <stop duration="30906" edge="823051188#1" actType="singing"/>
    <personTrip from="823051188#1" to="138203607" line="ANY" modes="public"/>
    <personTrip from="138203607" to="-38478976#2" line="ANY" vTypes="bicycle"/>
    <stop duration="36462" edge="-38478976#2" actType="singing"/>
    <personTrip from="-38478976#2" to="4807880#1" line="ANY" modes="public"/>
    <stop duration="31514" edge="4807880#1" actType="singing"/>
    <personTrip from="4807880#1" to="925072598" line="ANY" vTypes="passenger"/>
    <stop duration="31099" edge="925072598" actType="singing"/>
    <personTrip from="925072598" to="-38478976#2" line="ANY" modes="public"/>
    <stop duration="44962" edge="-38478976#2" actType="singing"/>
    <personTrip from="-38478976#2" to="-150691655#1" line="ANY" modes="public"/>
    <stop duration="46149" edge="-150691655#1" actType="singing"/>
    <personTrip from="-150691655#1" to="-163737793#1" line="ANY" modes="public"/>
    <personTrip from="-163737793#1" to="-38478976#2" line="ANY" vTypes="motorcycle"/>
    <stop duration="29300" edge="-38478976#2" actType="singing"/>
  </person>
  <person id="p4" depart="21600.00">
    <personTrip from="-38478976#2" to="25524000#3" line="ANY" modes="public"/>
    <stop duration="32701" edge="25524000#3" actType="singing"/>
    <personTrip from="25524000#3" to="-984678891#1" line="ANY" modes="public"/>
    <stop duration="36565" edge="-984678891#1" actType="singing"/>
    <personTrip from="-984678891#1" to="-4807774#1" line="ANY" modes="public"/>
    <personTrip from="-4807774#1" to="-38478976#2" line="ANY" vTypes="bicycle"/>
    <stop duration="39312" edge="-38478976#2" actType="singing"/>
    <personTrip from="-38478976#2" to="274617000#1" line="ANY" modes="public"/>
    <stop duration="33439" edge="274617000#1" actType="singing"/>
    <personTrip from="274617000#1" to="-269782614#4" line="ANY" modes="public"/>
    <personTrip from="-269782614#4" to="-38478976#2" line="ANY" vTypes="motorcycle"/>
    <stop duration="49865" edge="-38478976#2" actType="singing"/>
    <personTrip from="-38478976#2" to="122025256#0" line="ANY" vTypes="motorcycle"/>
    <stop duration="33116" edge="122025256#0" actType="singing"/>
    <personTrip from="122025256#0" to="-38478976#2" line="ANY" vTypes="bicycle"/>
    <stop duration="49856" edge="-38478976#2" actType="singing"/>
    <personTrip from="-38478976#2" to="-22910605" line="ANY" modes="public"/>
    <stop duration="43869" edge="-22910605" actType="singing"/>
    <personTrip from="-22910605" to="-24621681#1" line="ANY" modes="public"/>
    <personTrip from="-24621681#1" to="-38478976#2" line="ANY" vTypes="motorcycle"/>
    <stop duration="38886" edge="-38478976#2" actType="singing"/>
    <personTrip from="-38478976#2" to="965953205#0" line="ANY" vTypes="motorcycle"/>
    <stop duration="34324" edge="965953205#0" actType="singing"/>
  </person>
</routes>
