<routes>
  <person id="p0" depart="21600.00">
    <personTrip from="317596486#0" to="-10417266#1" line="ANY" modes="public"/>
    <personTrip from="-10417266#1" to="23032792#3" line="ANY" vTypes="motorcycle"/>
    <stop duration="33387" edge="23032792#3" actType="singing"/>
    <personTrip from="23032792#3" to="553323250" line="ANY" vTypes="motorcycle"/>
    <stop duration="48412" edge="553323250" actType="singing"/>
    <personTrip from="553323250" to="-30615049#1" line="ANY" modes="public"/>
    <stop duration="49725" edge="-30615049#1" actType="singing"/>
    <personTrip from="-30615049#1" to="317596486#0" line="ANY" modes="public"/>
    <stop duration="37793" edge="317596486#0" actType="singing"/>
    <personTrip from="317596486#0" to="-10417266#1" line="ANY" modes="public"/>
    <personTrip from="-10417266#1" to="23032792#3" line="ANY" vTypes="motorcycle"/>
    <stop duration="32325" edge="23032792#3" actType="singing"/>
    <personTrip from="23032792#3" to="23534522#1" line="ANY" vTypes="passenger"/>
    <stop duration="30993" edge="23534522#1" actType="singing"/>
    <personTrip from="23534522#1" to="317596486#0" line="ANY" modes="public"/>
    <stop duration="33830" edge="317596486#0" actType="singing"/>
    <personTrip from="317596486#0" to="-216941288" line="ANY" modes="public"/>
    <stop duration="32768" edge="-216941288" actType="singing"/>
    <personTrip from="-216941288" to="317596486#0" line="ANY" modes="public"/>
    <stop duration="36107" edge="317596486#0" actType="singing"/>
    <personTrip from="317596486#0" to="-23032788#1" line="ANY" modes="public"/>
    <personTrip from="-23032788#1" to="323485009#3" line="ANY" vTypes="passenger"/>
    <stop duration="38068" edge="323485009#3" actType="singing"/>
  </person>
</routes>
