<routes>
  <person id="p0" depart="21600.00">
    <personTrip from="-39551119#2" to="-169121712#1" line="ANY" vTypes="motorcycle"/>
    <stop duration="31339" edge="-169121712#1" actType="singing"/>
    <personTrip from="-169121712#1" to="699824707#0" line="ANY" vTypes="passenger"/>
    <stop duration="40816" edge="699824707#0" actType="singing"/>
    <personTrip from="699824707#0" to="-39551119#2" line="ANY" modes="public"/>
    <stop duration="32706" edge="-39551119#2" actType="singing"/>
    <personTrip from="-39551119#2" to="-169121712#1" line="ANY" modes="public"/>
    <stop duration="35674" edge="-169121712#1" actType="singing"/>
    <personTrip from="-169121712#1" to="-53563623#0" line="ANY" vTypes="passenger"/>
    <stop duration="38923" edge="-53563623#0" actType="singing"/>
    <personTrip from="-53563623#0" to="-169121712#1" line="ANY" modes="public"/>
    <stop duration="28202" edge="-169121712#1" actType="singing"/>
    <personTrip from="-169121712#1" to="-39551119#2" line="ANY" vTypes="motorcycle"/>
    <stop duration="36502" edge="-39551119#2" actType="singing"/>
    <personTrip from="-39551119#2" to="24146206" line="ANY" modes="public"/>
    <stop duration="49207" edge="24146206" actType="singing"/>
    <personTrip from="24146206" to="-39551119#2" line="ANY" modes="public"/>
    <stop duration="39516" edge="-39551119#2" actType="singing"/>
    <personTrip from="-39551119#2" to="-4807777" line="ANY" modes="public"/>
    <stop duration="50137" edge="-4807777" actType="singing"/>
  </person>
  <person id="p1" depart="21600.00">
    <personTrip from="-39551119#2" to="939208039" line="ANY" modes="public"/>
    <stop duration="48778" edge="939208039" actType="singing"/>
    <personTrip from="939208039" to="-39551119#2" line="ANY" vTypes="bicycle"/>
    <stop duration="34336" edge="-39551119#2" actType="singing"/>
    <personTrip from="-39551119#2" to="98942086#1" line="ANY" modes="public"/>
    <stop duration="40099" edge="98942086#1" actType="singing"/>
    <personTrip from="98942086#1" to="24957246#8" line="ANY" modes="public"/>
    <stop duration="38136" edge="24957246#8" actType="singing"/>
    <personTrip from="24957246#8" to="-269782617#6" line="ANY" modes="public"/>
    <personTrip from="-269782617#6" to="-696225646#1" line="ANY" vTypes="passenger"/>
    <stop duration="32662" edge="-696225646#1" actType="singing"/>
    <personTrip from="-696225646#1" to="-39551119#2" line="ANY" vTypes="bicycle"/>
    <stop duration="6802" edge="-39551119#2" actType="singing"/>
    <personTrip from="-39551119#2" to="183744964#4" line="ANY" vTypes="bicycle"/>
    <stop duration="33530" edge="183744964#4" actType="singing"/>
    <personTrip from="183744964#4" to="-323714052#1" line="ANY" modes="public"/>
    <personTrip from="-323714052#1" to="5047080#1" line="ANY" vTypes="bicycle"/>
    <stop duration="42162" edge="5047080#1" actType="singing"/>
    <personTrip from="5047080#1" to="-169121712#1" line="ANY" vTypes="passenger"/>
    <stop duration="28420" edge="-169121712#1" actType="singing"/>
    <personTrip from="-169121712#1" to="112518515#1" line="ANY" vTypes="passenger"/>
    <stop duration="33437" edge="112518515#1" actType="singing"/>
  </person>
  <person id="p2" depart="21600.00">
    <personTrip from="-39551119#2" to="639832307#0" line="ANY" modes="public"/>
    <stop duration="27656" edge="639832307#0" actType="singing"/>
    <personTrip from="639832307#0" to="1250554952#0" line="ANY" modes="public"/>
    <personTrip from="1250554952#0" to="823051188#2" line="ANY" vTypes="passenger"/>
    <stop duration="46471" edge="823051188#2" actType="singing"/>
    <personTrip from="823051188#2" to="4807773#0" line="ANY" modes="public"/>
    <personTrip from="4807773#0" to="4807773#0" line="ANY" vTypes="passenger"/>
    <stop duration="36080" edge="4807773#0" actType="singing"/>
    <personTrip from="4807773#0" to="-37181837#4" line="ANY" modes="public"/>
    <personTrip from="-37181837#4" to="591252083#0" line="ANY" vTypes="bicycle"/>
    <stop duration="41973" edge="591252083#0" actType="singing"/>
    <personTrip from="591252083#0" to="-39551119#2" line="ANY" vTypes="bicycle"/>
    <stop duration="41371" edge="-39551119#2" actType="singing"/>
    <personTrip from="-39551119#2" to="31626956#3" line="ANY" modes="public"/>
    <stop duration="38829" edge="31626956#3" actType="singing"/>
    <personTrip from="31626956#3" to="639832307#0" line="ANY" modes="public"/>
    <stop duration="26760" edge="639832307#0" actType="singing"/>
    <personTrip from="639832307#0" to="57869854" line="ANY" modes="public"/>
    <stop duration="31165" edge="57869854" actType="singing"/>
    <personTrip from="57869854" to="639832307#0" line="ANY" modes="public"/>
    <stop duration="17687" edge="639832307#0" actType="singing"/>
    <personTrip from="639832307#0" to="25812050#1" line="ANY" modes="public"/>
    <stop duration="39616" edge="25812050#1" actType="singing"/>
  </person>
  <person id="p3" depart="21600.00">
    <personTrip from="-39551119#2" to="695712555#2" line="ANY" vTypes="bicycle"/>
    <stop duration="20957" edge="695712555#2" actType="singing"/>
    <personTrip from="695712555#2" to="288809225#1" line="ANY" modes="public"/>
    <stop duration="34122" edge="288809225#1" actType="singing"/>
    <personTrip from="288809225#1" to="36990049#1" line="ANY" modes="public"/>
    <personTrip from="36990049#1" to="-39551119#2" line="ANY" vTypes="motorcycle"/>
    <stop duration="31741" edge="-39551119#2" actType="singing"/>
    <personTrip from="-39551119#2" to="695712555#2" line="ANY" modes="public"/>
    <stop duration="19066" edge="695712555#2" actType="singing"/>
    <personTrip from="695712555#2" to="4811292" line="ANY" modes="public"/>
    <stop duration="49446" edge="4811292" actType="singing"/>
    <personTrip from="4811292" to="-39551119#2" line="ANY" vTypes="motorcycle"/>
    <stop duration="42191" edge="-39551119#2" actType="singing"/>
    <personTrip from="-39551119#2" to="695712555#2" line="ANY" modes="public"/>
    <stop duration="15275" edge="695712555#2" actType="singing"/>
    <personTrip from="695712555#2" to="181651726#0" line="ANY" modes="public"/>
    <personTrip from="181651726#0" to="-39551119#2" line="ANY" vTypes="motorcycle"/>
    <stop duration="41229" edge="-39551119#2" actType="singing"/>
    <personTrip from="-39551119#2" to="692561009" line="ANY" vTypes="motorcycle"/>
    <stop duration="40226" edge="692561009" actType="singing"/>
    <personTrip from="692561009" to="521510809" line="ANY" modes="public"/>
    <personTrip from="521510809" to="-39551119#2" line="ANY" vTypes="passenger"/>
    <stop duration="37311" edge="-39551119#2" actType="singing"/>
  </person>
  <person id="p4" depart="21600.00">
    <personTrip from="-39551119#2" to="10419530#1" line="ANY" modes="public"/>
    <stop duration="45347" edge="10419530#1" actType="singing"/>
    <personTrip from="10419530#1" to="10419531#0" line="ANY" modes="public"/>
    <personTrip from="10419531#0" to="-39551119#2" line="ANY" vTypes="passenger"/>
    <stop duration="35569" edge="-39551119#2" actType="singing"/>
    <personTrip from="-39551119#2" to="823051186#3" line="ANY" modes="public"/>
    <stop duration="50171" edge="823051186#3" actType="singing"/>
    <personTrip from="823051186#3" to="-4807880#0" line="ANY" modes="public"/>
    <personTrip from="-4807880#0" to="-39551119#2" line="ANY" vTypes="bicycle"/>
    <stop duration="48321" edge="-39551119#2" actType="singing"/>
    <personTrip from="-39551119#2" to="323485009#2" line="ANY" vTypes="passenger"/>
    <stop duration="32302" edge="323485009#2" actType="singing"/>
    <personTrip from="323485009#2" to="4807770#1" line="ANY" vTypes="motorcycle"/>
    <stop duration="30144" edge="4807770#1" actType="singing"/>
    <personTrip from="4807770#1" to="23184023" line="ANY" modes="public"/>
    <personTrip from="23184023" to="553323250" line="ANY" vTypes="motorcycle"/>
    <stop duration="30994" edge="553323250" actType="singing"/>
    <personTrip from="553323250" to="-39551119#2" line="ANY" modes="public"/>
    <stop duration="7066" edge="-39551119#2" actType="singing"/>
    <personTrip from="-39551119#2" to="686400891#1" line="ANY" vTypes="passenger"/>
    <stop duration="38381" edge="686400891#1" actType="singing"/>
    <personTrip from="686400891#1" to="-30615049#1" line="ANY" modes="public"/>
    <stop duration="48629" edge="-30615049#1" actType="singing"/>
  </person>
</routes>
