<routes>
  <person id="p0" depart="21600.00">
    <personTrip from="317594596#4" to="-317594345#3" line="ANY" modes="public"/>
    <personTrip from="-317594345#3" to="47241806#2" line="ANY" vTypes="motorcycle"/>
    <stop duration="41524" edge="47241806#2" actType="singing"/>
    <personTrip from="47241806#2" to="109592901" line="ANY" modes="public"/>
    <stop duration="33363" edge="109592901" actType="singing"/>
    <personTrip from="109592901" to="-4807752#0" line="ANY" vTypes="bicycle"/>
    <stop duration="50158" edge="-4807752#0" actType="singing"/>
    <personTrip from="-4807752#0" to="317594596#4" line="ANY" vTypes="bicycle"/>
    <stop duration="29988" edge="317594596#4" actType="singing"/>
    <personTrip from="317594596#4" to="-976689252#0" line="ANY" modes="public"/>
    <stop duration="39137" edge="-976689252#0" actType="singing"/>
    <personTrip from="-976689252#0" to="317594596#4" line="ANY" vTypes="motorcycle"/>
    <stop duration="4758" edge="317594596#4" actType="singing"/>
    <personTrip from="317594596#4" to="272171169" line="ANY" modes="public"/>
    <stop duration="46236" edge="272171169" actType="singing"/>
    <personTrip from="272171169" to="4807837#2" line="ANY" modes="public"/>
    <stop duration="31966" edge="4807837#2" actType="singing"/>
    <personTrip from="4807837#2" to="31151988" line="ANY" vTypes="passenger"/>
    <stop duration="34739" edge="31151988" actType="singing"/>
    <personTrip from="31151988" to="317594596#4" line="ANY" modes="public"/>
    <stop duration="42895" edge="317594596#4" actType="singing"/>
  </person>
  <person id="p1" depart="21600.00">
    <personTrip from="317594596#4" to="-255241185" line="ANY" modes="public"/>
    <personTrip from="-255241185" to="31151988" line="ANY" vTypes="motorcycle"/>
    <stop duration="35270" edge="31151988" actType="singing"/>
    <personTrip from="31151988" to="24146206" line="ANY" vTypes="bicycle"/>
    <stop duration="38030" edge="24146206" actType="singing"/>
    <personTrip from="24146206" to="-692610297" line="ANY" modes="public"/>
    <personTrip from="-692610297" to="159029500#1" line="ANY" vTypes="motorcycle"/>
    <stop duration="34803" edge="159029500#1" actType="singing"/>
    <personTrip from="159029500#1" to="9054575" line="ANY" modes="public"/>
    <stop duration="34278" edge="9054575" actType="singing"/>
    <personTrip from="9054575" to="31155466#0" line="ANY" vTypes="bicycle"/>
    <stop duration="48344" edge="31155466#0" actType="singing"/>
    <personTrip from="31155466#0" to="-387401263" line="ANY" modes="public"/>
    <personTrip from="-387401263" to="272042576#1" line="ANY" vTypes="bicycle"/>
    <stop duration="41919" edge="272042576#1" actType="singing"/>
    <personTrip from="272042576#1" to="23184032" line="ANY" modes="public"/>
    <stop duration="35304" edge="23184032" actType="singing"/>
    <personTrip from="23184032" to="-4807746#0" line="ANY" modes="public"/>
    <personTrip from="-4807746#0" to="4807768#2" line="ANY" vTypes="passenger"/>
    <stop duration="37873" edge="4807768#2" actType="singing"/>
    <personTrip from="4807768#2" to="317594596#4" line="ANY" modes="public"/>
    <stop duration="39754" edge="317594596#4" actType="singing"/>
    <personTrip from="317594596#4" to="-400416447#1" line="ANY" modes="public"/>
    <personTrip from="-400416447#1" to="316354387#1" line="ANY" vTypes="motorcycle"/>
    <stop duration="48342" edge="316354387#1" actType="singing"/>
  </person>
  <person id="p2" depart="21600.00">
    <personTrip from="317594596#4" to="-317594345#3" line="ANY" modes="public"/>
    <personTrip from="-317594345#3" to="-26735019" line="ANY" vTypes="bicycle"/>
    <stop duration="19104" edge="-26735019" actType="singing"/>
    <personTrip from="-26735019" to="4807880#0" line="ANY" modes="public"/>
    <stop duration="33709" edge="4807880#0" actType="singing"/>
    <personTrip from="4807880#0" to="317594596#4" line="ANY" modes="public"/>
    <stop duration="45418" edge="317594596#4" actType="singing"/>
    <personTrip from="317594596#4" to="-400416447#1" line="ANY" modes="public"/>
    <personTrip from="-400416447#1" to="25213867#0" line="ANY" vTypes="bicycle"/>
    <stop duration="39522" edge="25213867#0" actType="singing"/>
    <personTrip from="25213867#0" to="317594596#4" line="ANY" modes="public"/>
    <stop duration="39263" edge="317594596#4" actType="singing"/>
    <personTrip from="317594596#4" to="-26735019" line="ANY" modes="public"/>
    <stop duration="33189" edge="-26735019" actType="singing"/>
    <personTrip from="-26735019" to="317594596#4" line="ANY" modes="public"/>
    <stop duration="47379" edge="317594596#4" actType="singing"/>
    <personTrip from="317594596#4" to="-400416447#1" line="ANY" modes="public"/>
    <personTrip from="-400416447#1" to="31626945#0" line="ANY" vTypes="bicycle"/>
    <stop duration="30183" edge="31626945#0" actType="singing"/>
    <personTrip from="31626945#0" to="112518515#1" line="ANY" modes="public"/>
    <stop duration="28880" edge="112518515#1" actType="singing"/>
    <personTrip from="112518515#1" to="317594596#4" line="ANY" modes="public"/>
    <stop duration="50083" edge="317594596#4" actType="singing"/>
  </person>
  <person id="p3" depart="21600.00">
    <personTrip from="317594596#4" to="157115786" line="ANY" modes="public"/>
    <stop duration="17748" edge="157115786" actType="singing"/>
    <personTrip from="157115786" to="-118972376#0" line="ANY" modes="public"/>
    <personTrip from="-118972376#0" to="317594596#4" line="ANY" vTypes="bicycle"/>
    <stop duration="5230" edge="317594596#4" actType="singing"/>
    <personTrip from="317594596#4" to="9054575" line="ANY" modes="public"/>
    <stop duration="34519" edge="9054575" actType="singing"/>
    <personTrip from="9054575" to="317594596#4" line="ANY" modes="public"/>
    <stop duration="47737" edge="317594596#4" actType="singing"/>
    <personTrip from="317594596#4" to="648572118#0" line="ANY" modes="public"/>
    <stop duration="44516" edge="648572118#0" actType="singing"/>
    <personTrip from="648572118#0" to="317594596#4" line="ANY" modes="public"/>
    <stop duration="42925" edge="317594596#4" actType="singing"/>
    <personTrip from="317594596#4" to="531514916" line="ANY" modes="public"/>
    <stop duration="35748" edge="531514916" actType="singing"/>
    <personTrip from="531514916" to="317594596#4" line="ANY" modes="public"/>
    <stop duration="31785" edge="317594596#4" actType="singing"/>
    <personTrip from="317594596#4" to="-10417266#1" line="ANY" modes="public"/>
    <personTrip from="-10417266#1" to="157115786" line="ANY" vTypes="bicycle"/>
    <stop duration="15529" edge="157115786" actType="singing"/>
    <personTrip from="157115786" to="-432904514" line="ANY" modes="public"/>
    <personTrip from="-432904514" to="639921147#0" line="ANY" vTypes="passenger"/>
    <stop duration="30244" edge="639921147#0" actType="singing"/>
  </person>
  <person id="p4" depart="21600.00">
    <personTrip from="317594596#4" to="112518522#1" line="ANY" modes="public"/>
    <stop duration="40224" edge="112518522#1" actType="singing"/>
    <personTrip from="112518522#1" to="98942086#1" line="ANY" modes="public"/>
    <stop duration="46060" edge="98942086#1" actType="singing"/>
    <personTrip from="98942086#1" to="317594596#4" line="ANY" modes="public"/>
    <stop duration="48229" edge="317594596#4" actType="singing"/>
    <personTrip from="317594596#4" to="439857024#3" line="ANY" modes="public"/>
    <stop duration="33505" edge="439857024#3" actType="singing"/>
    <personTrip from="439857024#3" to="4811331#0" line="ANY" modes="public"/>
    <personTrip from="4811331#0" to="-1163119433#0" line="ANY" vTypes="passenger"/>
    <stop duration="49895" edge="-1163119433#0" actType="singing"/>
    <personTrip from="-1163119433#0" to="-23316380#0" line="ANY" vTypes="passenger"/>
    <stop duration="32764" edge="-23316380#0" actType="singing"/>
    <personTrip from="-23316380#0" to="4807746#5" line="ANY" modes="public"/>
    <personTrip from="4807746#5" to="317594596#4" line="ANY" vTypes="passenger"/>
    <stop duration="48954" edge="317594596#4" actType="singing"/>
    <personTrip from="317594596#4" to="125007833#1" line="ANY" modes="public"/>
    <stop duration="39473" edge="125007833#1" actType="singing"/>
    <personTrip from="125007833#1" to="23312963#1" line="ANY" modes="public"/>
    <stop duration="33259" edge="23312963#1" actType="singing"/>
    <personTrip from="23312963#1" to="-23184009#2" line="ANY" modes="public"/>
    <personTrip from="-23184009#2" to="317594596#4" line="ANY" vTypes="bicycle"/>
    <stop duration="5566" edge="317594596#4" actType="singing"/>
  </person>
</routes>
