<routes>
  <person id="p0" depart="21600.00">
    <personTrip from="-25415442" to="272813972" line="ANY" modes="public"/>
    <stop duration="28952" edge="272813972" actType="singing"/>
  </person>
  <person id="p1" depart="21600.00">
    <personTrip from="-25415442" to="272813972" line="ANY" modes="public"/>
    <stop duration="29866" edge="272813972" actType="singing"/>
  </person>
  <person id="p2" depart="21600.00">
    <personTrip from="-25415442" to="639832307#0" line="ANY" modes="public"/>
    <stop duration="21547" edge="639832307#0" actType="singing"/>
  </person>
  <person id="p3" depart="21600.00">
    <personTrip from="-25415442" to="57869854" line="ANY" vTypes="bicycle"/>
    <stop duration="33114" edge="57869854" actType="singing"/>
  </person>
  <person id="p4" depart="21600.00">
    <personTrip from="-25415442" to="-875800261#0" line="ANY" modes="public"/>
    <stop duration="46096" edge="-875800261#0" actType="singing"/>
  </person>
</routes>
