<routes>
  <person id="p0" depart="0.00">
    <personTrip from="302688724" to="-400416447#2" line="ANY" modes="public"/>
    <personTrip from="-400416447#2" to="31626945#0" line="ANY" vTypes="bicycle"/>
    <stop duration="33821" edge="31626945#0" actType="singing"/>
    <personTrip from="31626945#0" to="302688724" line="ANY" modes="public"/>
    <stop duration="30007" edge="302688724" actType="singing"/>
    <personTrip from="302688724" to="23312969#2" line="ANY" modes="public"/>
    <stop duration="33892" edge="23312969#2" actType="singing"/>
    <personTrip from="23312969#2" to="31626945#0" line="ANY" modes="public"/>
    <stop duration="33010" edge="31626945#0" actType="singing"/>
    <personTrip from="31626945#0" to="-911970184" line="ANY" modes="public"/>
    <personTrip from="-911970184" to="302688724" line="ANY" vTypes="motorcycle"/>
    <stop duration="40935" edge="302688724" actType="singing"/>
  </person>
  <person id="p1" depart="0.00">
    <personTrip from="302688724" to="-156261679#1" line="ANY" modes="public"/>
    <personTrip from="-156261679#1" to="448974986" line="ANY" vTypes="bicycle"/>
    <stop duration="33451" edge="448974986" actType="singing"/>
    <personTrip from="448974986" to="302688724" line="ANY" modes="public"/>
    <stop duration="46397" edge="302688724" actType="singing"/>
    <personTrip from="302688724" to="-400416447#2" line="ANY" modes="public"/>
    <personTrip from="-400416447#2" to="198137953#0" line="ANY" vTypes="motorcycle"/>
    <stop duration="40408" edge="198137953#0" actType="singing"/>
    <personTrip from="198137953#0" to="302688724" line="ANY" vTypes="bicycle"/>
    <stop duration="34956" edge="302688724" actType="singing"/>
    <personTrip from="302688724" to="-400416447#2" line="ANY" modes="public"/>
    <personTrip from="-400416447#2" to="-23312960#0" line="ANY" vTypes="motorcycle"/>
    <stop duration="30720" edge="-23312960#0" actType="singing"/>
  </person>
  <person id="p2" depart="0.00">
    <personTrip from="302688724" to="448974986" line="ANY" modes="public"/>
    <stop duration="28966" edge="448974986" actType="singing"/>
    <personTrip from="448974986" to="23184032" line="ANY" modes="public"/>
    <stop duration="47811" edge="23184032" actType="singing"/>
    <personTrip from="23184032" to="302688724" line="ANY" modes="public"/>
    <stop duration="44831" edge="302688724" actType="singing"/>
    <personTrip from="302688724" to="4807837#2" line="ANY" modes="public"/>
    <stop duration="33496" edge="4807837#2" actType="singing"/>
    <personTrip from="4807837#2" to="272042576#1" line="ANY" modes="public"/>
    <stop duration="36290" edge="272042576#1" actType="singing"/>
  </person>
  <person id="p3" depart="0.00">
    <personTrip from="10417269#0" to="-432904379#0" line="ANY" modes="public"/>
    <personTrip from="-432904379#0" to="639832307#0" line="ANY" vTypes="motorcycle"/>
    <stop duration="28802" edge="639832307#0" actType="singing"/>
    <personTrip from="639832307#0" to="10419529#2" line="ANY" modes="public"/>
    <personTrip from="10419529#2" to="-12098782#0" line="ANY" vTypes="bicycle"/>
    <stop duration="28810" edge="-12098782#0" actType="singing"/>
    <personTrip from="-12098782#0" to="10417269#0" line="ANY" vTypes="bicycle"/>
    <stop duration="43341" edge="10417269#0" actType="singing"/>
    <personTrip from="10417269#0" to="-24321579#3" line="ANY" modes="public"/>
    <stop duration="30758" edge="-24321579#3" actType="singing"/>
    <personTrip from="-24321579#3" to="10417269#0" line="ANY" vTypes="passenger"/>
    <stop duration="35799" edge="10417269#0" actType="singing"/>
  </person>
  <person id="p4" depart="0.00">
    <personTrip from="302688724" to="-400416447#2" line="ANY" modes="public"/>
    <personTrip from="-400416447#2" to="639832307#0" line="ANY" vTypes="bicycle"/>
    <stop duration="27626" edge="639832307#0" actType="singing"/>
    <personTrip from="639832307#0" to="632186818" line="ANY" modes="public"/>
    <personTrip from="632186818" to="-586684993#1" line="ANY" vTypes="passenger"/>
    <stop duration="29031" edge="-586684993#1" actType="singing"/>
    <personTrip from="-586684993#1" to="-23093187#2" line="ANY" modes="public"/>
    <personTrip from="-23093187#2" to="302688724" line="ANY" vTypes="passenger"/>
    <stop duration="42502" edge="302688724" actType="singing"/>
    <personTrip from="302688724" to="-22946880#0" line="ANY" modes="public"/>
    <personTrip from="-22946880#0" to="4807837#1" line="ANY" vTypes="passenger"/>
    <stop duration="32219" edge="4807837#1" actType="singing"/>
    <personTrip from="4807837#1" to="25213867#0" line="ANY" vTypes="motorcycle"/>
    <stop duration="49859" edge="25213867#0" actType="singing"/>
  </person>
  <person id="p5" depart="0.00">
    <personTrip from="10417269#0" to="158355467#5" line="ANY" modes="public"/>
    <stop duration="19115" edge="158355467#5" actType="singing"/>
    <personTrip from="158355467#5" to="23534522#1" line="ANY" vTypes="motorcycle"/>
    <stop duration="45288" edge="23534522#1" actType="singing"/>
    <personTrip from="23534522#1" to="10417269#0" line="ANY" modes="public"/>
    <stop duration="35223" edge="10417269#0" actType="singing"/>
    <personTrip from="10417269#0" to="-432904379#0" line="ANY" modes="public"/>
    <personTrip from="-432904379#0" to="947240461" line="ANY" vTypes="passenger"/>
    <stop duration="32618" edge="947240461" actType="singing"/>
    <personTrip from="947240461" to="10417269#0" line="ANY" modes="public"/>
    <stop duration="49021" edge="10417269#0" actType="singing"/>
  </person>
  <person id="p6" depart="0.00">
    <personTrip from="302688724" to="167795339#2" line="ANY" modes="public"/>
    <stop duration="17039" edge="167795339#2" actType="singing"/>
    <personTrip from="167795339#2" to="-23447383#3" line="ANY" modes="public"/>
    <personTrip from="-23447383#3" to="-42326258#0" line="ANY" vTypes="motorcycle"/>
    <stop duration="40650" edge="-42326258#0" actType="singing"/>
    <personTrip from="-42326258#0" to="31626948" line="ANY" vTypes="passenger"/>
    <stop duration="36069" edge="31626948" actType="singing"/>
    <personTrip from="31626948" to="167795339#2" line="ANY" modes="public"/>
    <stop duration="16532" edge="167795339#2" actType="singing"/>
    <personTrip from="167795339#2" to="759106470#1" line="ANY" modes="public"/>
    <stop duration="38064" edge="759106470#1" actType="singing"/>
  </person>
  <person id="p7" depart="0.00">
    <personTrip from="302688724" to="-343305746#0" line="ANY" modes="public"/>
    <stop duration="41371" edge="-343305746#0" actType="singing"/>
    <personTrip from="-343305746#0" to="302688724" line="ANY" vTypes="motorcycle"/>
    <stop duration="29168" edge="302688724" actType="singing"/>
    <personTrip from="302688724" to="-400416447#2" line="ANY" modes="public"/>
    <personTrip from="-400416447#2" to="23184019#0" line="ANY" vTypes="bicycle"/>
    <stop duration="43984" edge="23184019#0" actType="singing"/>
    <personTrip from="23184019#0" to="15021494#1" line="ANY" modes="public"/>
    <stop duration="29915" edge="15021494#1" actType="singing"/>
    <personTrip from="15021494#1" to="156260255#0" line="ANY" modes="public"/>
    <personTrip from="156260255#0" to="302688724" line="ANY" vTypes="motorcycle"/>
    <stop duration="32033" edge="302688724" actType="singing"/>
  </person>
  <person id="p8" depart="0.00">
    <personTrip from="302688724" to="4811453#7" line="ANY" modes="public"/>
    <stop duration="42385" edge="4811453#7" actType="singing"/>
    <personTrip from="4811453#7" to="302688724" line="ANY" modes="public"/>
    <stop duration="36416" edge="302688724" actType="singing"/>
    <personTrip from="302688724" to="158387861#4" line="ANY" modes="public"/>
    <stop duration="34118" edge="158387861#4" actType="singing"/>
    <personTrip from="158387861#4" to="-875800261#3" line="ANY" modes="public"/>
    <personTrip from="-875800261#3" to="13861894#1" line="ANY" vTypes="bicycle"/>
    <stop duration="50035" edge="13861894#1" actType="singing"/>
    <personTrip from="13861894#1" to="302688724" line="ANY" modes="public"/>
    <stop duration="29029" edge="302688724" actType="singing"/>
  </person>
  <person id="p9" depart="0.00">
    <personTrip from="302688724" to="145316767#1" line="ANY" modes="public"/>
    <stop duration="45976" edge="145316767#1" actType="singing"/>
    <personTrip from="145316767#1" to="914785856" line="ANY" modes="public"/>
    <personTrip from="914785856" to="759106470#1" line="ANY" vTypes="motorcycle"/>
    <stop duration="47793" edge="759106470#1" actType="singing"/>
    <personTrip from="759106470#1" to="823051186#4" line="ANY" modes="public"/>
    <stop duration="45599" edge="823051186#4" actType="singing"/>
    <personTrip from="823051186#4" to="-37181837#4" line="ANY" modes="public"/>
    <personTrip from="-37181837#4" to="47241806#0" line="ANY" vTypes="passenger"/>
    <stop duration="35272" edge="47241806#0" actType="singing"/>
    <personTrip from="47241806#0" to="23196347" line="ANY" modes="public"/>
    <stop duration="33297" edge="23196347" actType="singing"/>
  </person>
</routes>
