<routes>
  <person id="p0" depart="0.00">
    <personTrip from="399038513#15" to="-26735019" line="ANY" vTypes="bicycle"/>
    <stop duration="33132" edge="-26735019" actType="singing"/>
    <personTrip from="-26735019" to="1020368373" line="ANY" modes="public"/>
    <stop duration="32360" edge="1020368373" actType="singing"/>
    <personTrip from="1020368373" to="-23320804#2" line="ANY" modes="public"/>
    <personTrip from="-23320804#2" to="399038513#15" line="ANY" vTypes="motorcycle"/>
    <stop duration="32705" edge="399038513#15" actType="singing"/>
    <personTrip from="399038513#15" to="-26735019" line="ANY" modes="public"/>
    <stop duration="29127" edge="-26735019" actType="singing"/>
    <personTrip from="-26735019" to="23184032" line="ANY" modes="public"/>
    <stop duration="32116" edge="23184032" actType="singing"/>
    <personTrip from="23184032" to="-1250860603" line="ANY" modes="public"/>
    <personTrip from="-1250860603" to="399038513#15" line="ANY" vTypes="motorcycle"/>
    <stop duration="32981" edge="399038513#15" actType="singing"/>
    <personTrip from="399038513#15" to="548505096#1" line="ANY" vTypes="motorcycle"/>
    <stop duration="43669" edge="548505096#1" actType="singing"/>
    <personTrip from="548505096#1" to="399038513#15" line="ANY" vTypes="passenger"/>
    <stop duration="45841" edge="399038513#15" actType="singing"/>
    <personTrip from="399038513#15" to="-26735019" line="ANY" vTypes="passenger"/>
    <stop duration="29549" edge="-26735019" actType="singing"/>
    <personTrip from="-26735019" to="-9514888#8" line="ANY" modes="public"/>
    <personTrip from="-9514888#8" to="399038513#15" line="ANY" vTypes="passenger"/>
    <stop duration="32015" edge="399038513#15" actType="singing"/>
  </person>
  <person id="p1" depart="0.00">
    <personTrip from="399038513#15" to="-26735019" line="ANY" modes="public"/>
    <stop duration="28423" edge="-26735019" actType="singing"/>
    <personTrip from="-26735019" to="31626938#1" line="ANY" modes="public"/>
    <stop duration="33879" edge="31626938#1" actType="singing"/>
    <personTrip from="31626938#1" to="699824707#0" line="ANY" modes="public"/>
    <stop duration="33163" edge="699824707#0" actType="singing"/>
    <personTrip from="699824707#0" to="-26735019" line="ANY" modes="public"/>
    <stop duration="35279" edge="-26735019" actType="singing"/>
    <personTrip from="-26735019" to="-9514888#8" line="ANY" modes="public"/>
    <personTrip from="-9514888#8" to="23176406" line="ANY" vTypes="passenger"/>
    <stop duration="49500" edge="23176406" actType="singing"/>
    <personTrip from="23176406" to="-26735019" line="ANY" modes="public"/>
    <stop duration="28240" edge="-26735019" actType="singing"/>
    <personTrip from="-26735019" to="-9514888#8" line="ANY" modes="public"/>
    <personTrip from="-9514888#8" to="31626930" line="ANY" vTypes="passenger"/>
    <stop duration="42362" edge="31626930" actType="singing"/>
    <personTrip from="31626930" to="366025459#1" line="ANY" modes="public"/>
    <stop duration="44712" edge="366025459#1" actType="singing"/>
    <personTrip from="366025459#1" to="-23725458#1" line="ANY" modes="public"/>
    <personTrip from="-23725458#1" to="-4590683#0" line="ANY" vTypes="passenger"/>
    <stop duration="48479" edge="-4590683#0" actType="singing"/>
    <personTrip from="-4590683#0" to="399038513#15" line="ANY" modes="public"/>
    <stop duration="39297" edge="399038513#15" actType="singing"/>
  </person>
  <person id="p2" depart="0.00">
    <personTrip from="37801449" to="-26735019" line="ANY" vTypes="motorcycle"/>
    <stop duration="35140" edge="-26735019" actType="singing"/>
    <personTrip from="-26735019" to="37801449" line="ANY" modes="public"/>
    <stop duration="41263" edge="37801449" actType="singing"/>
    <personTrip from="37801449" to="-837521439" line="ANY" vTypes="passenger"/>
    <stop duration="31428" edge="-837521439" actType="singing"/>
    <personTrip from="-837521439" to="23312962#3" line="ANY" modes="public"/>
    <personTrip from="23312962#3" to="-26735019" line="ANY" vTypes="passenger"/>
    <stop duration="32101" edge="-26735019" actType="singing"/>
    <personTrip from="-26735019" to="37801449" line="ANY" modes="public"/>
    <stop duration="41262" edge="37801449" actType="singing"/>
    <personTrip from="37801449" to="-26735019" line="ANY" modes="public"/>
    <stop duration="33703" edge="-26735019" actType="singing"/>
    <personTrip from="-26735019" to="37801449" line="ANY" modes="public"/>
    <stop duration="31703" edge="37801449" actType="singing"/>
    <personTrip from="37801449" to="127613685" line="ANY" modes="public"/>
    <stop duration="40397" edge="127613685" actType="singing"/>
    <personTrip from="127613685" to="-875847755#1" line="ANY" modes="public"/>
    <personTrip from="-875847755#1" to="4590683#0" line="ANY" vTypes="passenger"/>
    <stop duration="40172" edge="4590683#0" actType="singing"/>
    <personTrip from="4590683#0" to="25213867#0" line="ANY" vTypes="passenger"/>
    <stop duration="28821" edge="25213867#0" actType="singing"/>
  </person>
  <person id="p3" depart="0.00">
    <personTrip from="399038513#15" to="-26735019" line="ANY" modes="public"/>
    <stop duration="21160" edge="-26735019" actType="singing"/>
    <personTrip from="-26735019" to="441529519" line="ANY" modes="public"/>
    <stop duration="37612" edge="441529519" actType="singing"/>
    <personTrip from="441529519" to="4807837#2" line="ANY" vTypes="bicycle"/>
    <stop duration="38648" edge="4807837#2" actType="singing"/>
    <personTrip from="4807837#2" to="399038513#15" line="ANY" modes="public"/>
    <stop duration="4621" edge="399038513#15" actType="singing"/>
    <personTrip from="399038513#15" to="4807768#2" line="ANY" modes="public"/>
    <stop duration="40158" edge="4807768#2" actType="singing"/>
    <personTrip from="4807768#2" to="-23316380#0" line="ANY" vTypes="motorcycle"/>
    <stop duration="10534" edge="-23316380#0" actType="singing"/>
    <personTrip from="-23316380#0" to="4807880#0" line="ANY" modes="public"/>
    <stop duration="37119" edge="4807880#0" actType="singing"/>
    <personTrip from="4807880#0" to="-23316380#0" line="ANY" modes="public"/>
    <stop duration="36473" edge="-23316380#0" actType="singing"/>
    <personTrip from="-23316380#0" to="399038513#15" line="ANY" modes="public"/>
    <stop duration="50320" edge="399038513#15" actType="singing"/>
    <personTrip from="399038513#15" to="37764829#0" line="ANY" modes="public"/>
    <stop duration="38060" edge="37764829#0" actType="singing"/>
  </person>
  <person id="p4" depart="0.00">
    <personTrip from="37801449" to="220151070#4" line="ANY" modes="public"/>
    <stop duration="43146" edge="220151070#4" actType="singing"/>
    <personTrip from="220151070#4" to="37801449" line="ANY" vTypes="bicycle"/>
    <stop duration="40372" edge="37801449" actType="singing"/>
    <personTrip from="37801449" to="-26735019" line="ANY" modes="public"/>
    <stop duration="19187" edge="-26735019" actType="singing"/>
    <personTrip from="-26735019" to="316354387#1" line="ANY" modes="public"/>
    <stop duration="33316" edge="316354387#1" actType="singing"/>
    <personTrip from="316354387#1" to="1254291648" line="ANY" modes="public"/>
    <stop duration="36688" edge="1254291648" actType="singing"/>
    <personTrip from="1254291648" to="37801449" line="ANY" modes="public"/>
    <stop duration="38893" edge="37801449" actType="singing"/>
    <personTrip from="37801449" to="27607675" line="ANY" vTypes="bicycle"/>
    <stop duration="46981" edge="27607675" actType="singing"/>
    <personTrip from="27607675" to="37801449" line="ANY" vTypes="bicycle"/>
    <stop duration="43602" edge="37801449" actType="singing"/>
    <personTrip from="37801449" to="-4811548#1" line="ANY" vTypes="passenger"/>
    <stop duration="40945" edge="-4811548#1" actType="singing"/>
    <personTrip from="-4811548#1" to="464511676" line="ANY" modes="public"/>
    <stop duration="42690" edge="464511676" actType="singing"/>
  </person>
  <person id="p5" depart="0.00">
    <personTrip from="399038513#15" to="-26735019" line="ANY" modes="public"/>
    <stop duration="27925" edge="-26735019" actType="singing"/>
    <personTrip from="-26735019" to="639832304" line="ANY" modes="public"/>
    <stop duration="44536" edge="639832304" actType="singing"/>
    <personTrip from="639832304" to="23312963#3" line="ANY" modes="public"/>
    <stop duration="43899" edge="23312963#3" actType="singing"/>
    <personTrip from="23312963#3" to="288809225#1" line="ANY" modes="public"/>
    <stop duration="40888" edge="288809225#1" actType="singing"/>
    <personTrip from="288809225#1" to="399038513#15" line="ANY" modes="public"/>
    <stop duration="35856" edge="399038513#15" actType="singing"/>
    <personTrip from="399038513#15" to="-22889927#0" line="ANY" modes="public"/>
    <stop duration="49753" edge="-22889927#0" actType="singing"/>
    <personTrip from="-22889927#0" to="399038513#15" line="ANY" modes="public"/>
    <stop duration="42633" edge="399038513#15" actType="singing"/>
    <personTrip from="399038513#15" to="23551521#3" line="ANY" vTypes="motorcycle"/>
    <stop duration="30730" edge="23551521#3" actType="singing"/>
    <personTrip from="23551521#3" to="125007833#1" line="ANY" vTypes="bicycle"/>
    <stop duration="49808" edge="125007833#1" actType="singing"/>
    <personTrip from="125007833#1" to="23534522#1" line="ANY" modes="public"/>
    <stop duration="36495" edge="23534522#1" actType="singing"/>
  </person>
  <person id="p6" depart="0.00">
    <personTrip from="37801449" to="-26735019" line="ANY" vTypes="passenger"/>
    <stop duration="30646" edge="-26735019" actType="singing"/>
    <personTrip from="-26735019" to="-23312960#0" line="ANY" modes="public"/>
    <stop duration="30325" edge="-23312960#0" actType="singing"/>
    <personTrip from="-23312960#0" to="-23275106" line="ANY" vTypes="passenger"/>
    <stop duration="33761" edge="-23275106" actType="singing"/>
    <personTrip from="-23275106" to="-26735019" line="ANY" modes="public"/>
    <stop duration="28822" edge="-26735019" actType="singing"/>
    <personTrip from="-26735019" to="37801449" line="ANY" vTypes="bicycle"/>
    <stop duration="39155" edge="37801449" actType="singing"/>
    <personTrip from="37801449" to="4807773#2" line="ANY" modes="public"/>
    <stop duration="47017" edge="4807773#2" actType="singing"/>
    <personTrip from="4807773#2" to="-4807766" line="ANY" modes="public"/>
    <personTrip from="-4807766" to="22939375#2" line="ANY" vTypes="passenger"/>
    <stop duration="46556" edge="22939375#2" actType="singing"/>
    <personTrip from="22939375#2" to="37801449" line="ANY" modes="public"/>
    <stop duration="47185" edge="37801449" actType="singing"/>
    <personTrip from="37801449" to="577367722#0" line="ANY" modes="public"/>
    <stop duration="47738" edge="577367722#0" actType="singing"/>
    <personTrip from="577367722#0" to="-26735019" line="ANY" modes="public"/>
    <stop duration="22897" edge="-26735019" actType="singing"/>
  </person>
  <person id="p7" depart="0.00">
    <personTrip from="37801449" to="-26735019" line="ANY" modes="public"/>
    <stop duration="29830" edge="-26735019" actType="singing"/>
    <personTrip from="-26735019" to="699824715#3" line="ANY" modes="public"/>
    <stop duration="37782" edge="699824715#3" actType="singing"/>
    <personTrip from="699824715#3" to="37801449" line="ANY" modes="public"/>
    <stop duration="37325" edge="37801449" actType="singing"/>
    <personTrip from="37801449" to="183744964#4" line="ANY" modes="public"/>
    <stop duration="30929" edge="183744964#4" actType="singing"/>
    <personTrip from="183744964#4" to="439857024#7" line="ANY" modes="public"/>
    <stop duration="43181" edge="439857024#7" actType="singing"/>
    <personTrip from="439857024#7" to="23534522#1" line="ANY" modes="public"/>
    <stop duration="35386" edge="23534522#1" actType="singing"/>
    <personTrip from="23534522#1" to="-26735019" line="ANY" vTypes="passenger"/>
    <stop duration="31840" edge="-26735019" actType="singing"/>
    <personTrip from="-26735019" to="37801449" line="ANY" modes="public"/>
    <stop duration="40104" edge="37801449" actType="singing"/>
    <personTrip from="37801449" to="-23999280#1" line="ANY" vTypes="passenger"/>
    <stop duration="36760" edge="-23999280#1" actType="singing"/>
    <personTrip from="-23999280#1" to="37801449" line="ANY" modes="public"/>
    <stop duration="36632" edge="37801449" actType="singing"/>
  </person>
  <person id="p8" depart="0.00">
    <personTrip from="399038513#15" to="-26735019" line="ANY" vTypes="bicycle"/>
    <stop duration="27155" edge="-26735019" actType="singing"/>
    <personTrip from="-26735019" to="62140554#1" line="ANY" modes="public"/>
    <stop duration="38632" edge="62140554#1" actType="singing"/>
    <personTrip from="62140554#1" to="-163491633#1" line="ANY" modes="public"/>
    <personTrip from="-163491633#1" to="-26735019" line="ANY" vTypes="passenger"/>
    <stop duration="33681" edge="-26735019" actType="singing"/>
    <personTrip from="-26735019" to="399038513#15" line="ANY" vTypes="bicycle"/>
    <stop duration="5141" edge="399038513#15" actType="singing"/>
    <personTrip from="399038513#15" to="-26735019" line="ANY" vTypes="bicycle"/>
    <stop duration="31948" edge="-26735019" actType="singing"/>
    <personTrip from="-26735019" to="-9514888#8" line="ANY" modes="public"/>
    <personTrip from="-9514888#8" to="-837521439" line="ANY" vTypes="passenger"/>
    <stop duration="34935" edge="-837521439" actType="singing"/>
    <personTrip from="-837521439" to="23312967#1" line="ANY" vTypes="bicycle"/>
    <stop duration="31367" edge="23312967#1" actType="singing"/>
    <personTrip from="23312967#1" to="213106719" line="ANY" modes="public"/>
    <stop duration="39682" edge="213106719" actType="singing"/>
    <personTrip from="213106719" to="399038513#15" line="ANY" modes="public"/>
    <stop duration="36162" edge="399038513#15" actType="singing"/>
    <personTrip from="399038513#15" to="-26735019" line="ANY" modes="public"/>
    <stop duration="21683" edge="-26735019" actType="singing"/>
  </person>
  <person id="p9" depart="0.00">
    <personTrip from="399038513#15" to="-26735019" line="ANY" modes="public"/>
    <stop duration="27075" edge="-26735019" actType="singing"/>
    <personTrip from="-26735019" to="553323250" line="ANY" vTypes="bicycle"/>
    <stop duration="40713" edge="553323250" actType="singing"/>
    <personTrip from="553323250" to="399038513#15" line="ANY" vTypes="passenger"/>
    <stop duration="40420" edge="399038513#15" actType="singing"/>
    <personTrip from="399038513#15" to="4590683#0" line="ANY" modes="public"/>
    <stop duration="30775" edge="4590683#0" actType="singing"/>
    <personTrip from="4590683#0" to="-126109382" line="ANY" vTypes="motorcycle"/>
    <stop duration="41841" edge="-126109382" actType="singing"/>
    <personTrip from="-126109382" to="-26735019" line="ANY" modes="public"/>
    <stop duration="22488" edge="-26735019" actType="singing"/>
    <personTrip from="-26735019" to="-9514888#8" line="ANY" modes="public"/>
    <personTrip from="-9514888#8" to="-37181837#5" line="ANY" vTypes="passenger"/>
    <stop duration="29454" edge="-37181837#5" actType="singing"/>
    <personTrip from="-37181837#5" to="399038513#15" line="ANY" vTypes="passenger"/>
    <stop duration="42785" edge="399038513#15" actType="singing"/>
    <personTrip from="399038513#15" to="26735073#0" line="ANY" vTypes="motorcycle"/>
    <stop duration="33629" edge="26735073#0" actType="singing"/>
    <personTrip from="26735073#0" to="399038513#15" line="ANY" vTypes="motorcycle"/>
    <stop duration="30551" edge="399038513#15" actType="singing"/>
  </person>
</routes>
