<routes>
  <person id="p0" depart="0.00">
    <personTrip from="25935612#1" to="970981143" line="ANY" vTypes="bicycle"/>
    <stop duration="32401" edge="970981143" actType="singing"/>
    <personTrip from="970981143" to="25935612#1" line="ANY" modes="public"/>
    <stop duration="41605" edge="25935612#1" actType="singing"/>
    <personTrip from="25935612#1" to="31626945#0" line="ANY" modes="public"/>
    <stop duration="41348" edge="31626945#0" actType="singing"/>
    <personTrip from="31626945#0" to="17096030#1" line="ANY" modes="public"/>
    <personTrip from="17096030#1" to="23312959#0" line="ANY" vTypes="motorcycle"/>
    <stop duration="32972" edge="23312959#0" actType="singing"/>
    <personTrip from="23312959#0" to="125007833#1" line="ANY" vTypes="passenger"/>
    <stop duration="38378" edge="125007833#1" actType="singing"/>
    <personTrip from="125007833#1" to="-837521439" line="ANY" modes="public"/>
    <stop duration="29107" edge="-837521439" actType="singing"/>
    <personTrip from="-837521439" to="823051188#2" line="ANY" vTypes="bicycle"/>
    <stop duration="29295" edge="823051188#2" actType="singing"/>
    <personTrip from="823051188#2" to="25935612#1" line="ANY" modes="public"/>
    <stop duration="46899" edge="25935612#1" actType="singing"/>
    <personTrip from="25935612#1" to="23184031" line="ANY" modes="public"/>
    <stop duration="38351" edge="23184031" actType="singing"/>
    <personTrip from="23184031" to="5047080#0" line="ANY" modes="public"/>
    <personTrip from="5047080#0" to="25935612#1" line="ANY" vTypes="passenger"/>
    <stop duration="32172" edge="25935612#1" actType="singing"/>
  </person>
  <person id="p1" depart="0.00">
    <personTrip from="-248760538#1" to="27607675" line="ANY" vTypes="passenger"/>
    <stop duration="32023" edge="27607675" actType="singing"/>
    <personTrip from="27607675" to="-23736862" line="ANY" modes="public"/>
    <stop duration="33338" edge="-23736862" actType="singing"/>
    <personTrip from="-23736862" to="-248760538#1" line="ANY" vTypes="bicycle"/>
    <stop duration="30159" edge="-248760538#1" actType="singing"/>
    <personTrip from="-248760538#1" to="27607675" line="ANY" modes="public"/>
    <stop duration="31716" edge="27607675" actType="singing"/>
    <personTrip from="27607675" to="-248760538#1" line="ANY" modes="public"/>
    <stop duration="50245" edge="-248760538#1" actType="singing"/>
    <personTrip from="-248760538#1" to="27607675" line="ANY" vTypes="bicycle"/>
    <stop duration="35837" edge="27607675" actType="singing"/>
    <personTrip from="27607675" to="4807774#2" line="ANY" vTypes="passenger"/>
    <stop duration="37340" edge="4807774#2" actType="singing"/>
    <personTrip from="4807774#2" to="-248760538#1" line="ANY" vTypes="passenger"/>
    <stop duration="46631" edge="-248760538#1" actType="singing"/>
    <personTrip from="-248760538#1" to="31626930" line="ANY" vTypes="motorcycle"/>
    <stop duration="45404" edge="31626930" actType="singing"/>
    <personTrip from="31626930" to="-248760538#1" line="ANY" modes="public"/>
    <stop duration="42451" edge="-248760538#1" actType="singing"/>
  </person>
  <person id="p2" depart="0.00">
    <personTrip from="25935612#1" to="-95158558#2" line="ANY" modes="public"/>
    <stop duration="47719" edge="-95158558#2" actType="singing"/>
    <personTrip from="-95158558#2" to="387155260#1" line="ANY" modes="public"/>
    <personTrip from="387155260#1" to="31626956#0" line="ANY" vTypes="passenger"/>
    <stop duration="29498" edge="31626956#0" actType="singing"/>
    <personTrip from="31626956#0" to="182055652#0" line="ANY" modes="public"/>
    <personTrip from="182055652#0" to="25935612#1" line="ANY" vTypes="passenger"/>
    <stop duration="40277" edge="25935612#1" actType="singing"/>
    <personTrip from="25935612#1" to="-248760538#1" line="ANY" vTypes="bicycle"/>
    <stop duration="34892" edge="-248760538#1" actType="singing"/>
    <personTrip from="-248760538#1" to="591252083#0" line="ANY" modes="public"/>
    <stop duration="37626" edge="591252083#0" actType="singing"/>
    <personTrip from="591252083#0" to="149650133#0" line="ANY" vTypes="motorcycle"/>
    <stop duration="41843" edge="149650133#0" actType="singing"/>
    <personTrip from="149650133#0" to="23196347" line="ANY" modes="public"/>
    <stop duration="35485" edge="23196347" actType="singing"/>
    <personTrip from="23196347" to="-248760538#1" line="ANY" vTypes="passenger"/>
    <stop duration="35396" edge="-248760538#1" actType="singing"/>
    <personTrip from="-248760538#1" to="25935612#1" line="ANY" vTypes="passenger"/>
    <stop duration="44893" edge="25935612#1" actType="singing"/>
    <personTrip from="25935612#1" to="-248760538#1" line="ANY" modes="public"/>
    <stop duration="33591" edge="-248760538#1" actType="singing"/>
  </person>
  <person id="p3" depart="0.00">
    <personTrip from="25935612#1" to="-26735019" line="ANY" modes="public"/>
    <stop duration="19420" edge="-26735019" actType="singing"/>
    <personTrip from="-26735019" to="-9514888#5" line="ANY" modes="public"/>
    <personTrip from="-9514888#5" to="699824707#0" line="ANY" vTypes="motorcycle"/>
    <stop duration="42294" edge="699824707#0" actType="singing"/>
    <personTrip from="699824707#0" to="-1088871993#0" line="ANY" modes="public"/>
    <personTrip from="-1088871993#0" to="25935612#1" line="ANY" vTypes="passenger"/>
    <stop duration="46847" edge="25935612#1" actType="singing"/>
    <personTrip from="25935612#1" to="-26735019" line="ANY" vTypes="motorcycle"/>
    <stop duration="26819" edge="-26735019" actType="singing"/>
    <personTrip from="-26735019" to="-274191618#0" line="ANY" modes="public"/>
    <personTrip from="-274191618#0" to="25935612#1" line="ANY" vTypes="passenger"/>
    <stop duration="40014" edge="25935612#1" actType="singing"/>
    <personTrip from="25935612#1" to="-26735019" line="ANY" vTypes="passenger"/>
    <stop duration="32706" edge="-26735019" actType="singing"/>
    <personTrip from="-26735019" to="25935612#1" line="ANY" modes="public"/>
    <stop duration="30915" edge="25935612#1" actType="singing"/>
    <personTrip from="25935612#1" to="366025459#1" line="ANY" vTypes="motorcycle"/>
    <stop duration="38327" edge="366025459#1" actType="singing"/>
    <personTrip from="366025459#1" to="-35897001" line="ANY" modes="public"/>
    <personTrip from="-35897001" to="464511676" line="ANY" vTypes="bicycle"/>
    <stop duration="47609" edge="464511676" actType="singing"/>
    <personTrip from="464511676" to="25935612#1" line="ANY" modes="public"/>
    <stop duration="40812" edge="25935612#1" actType="singing"/>
  </person>
  <person id="p4" depart="0.00">
    <personTrip from="25935612#1" to="639832307#0" line="ANY" modes="public"/>
    <stop duration="19904" edge="639832307#0" actType="singing"/>
    <personTrip from="639832307#0" to="1250554953" line="ANY" modes="public"/>
    <personTrip from="1250554953" to="288809225#1" line="ANY" vTypes="bicycle"/>
    <stop duration="37475" edge="288809225#1" actType="singing"/>
    <personTrip from="288809225#1" to="26263195#1" line="ANY" modes="public"/>
    <personTrip from="26263195#1" to="-23316380#0" line="ANY" vTypes="passenger"/>
    <stop duration="47040" edge="-23316380#0" actType="singing"/>
    <personTrip from="-23316380#0" to="639832307#0" line="ANY" modes="public"/>
    <stop duration="24405" edge="639832307#0" actType="singing"/>
    <personTrip from="639832307#0" to="-17096975#0" line="ANY" modes="public"/>
    <personTrip from="-17096975#0" to="25935612#1" line="ANY" vTypes="motorcycle"/>
    <stop duration="34314" edge="25935612#1" actType="singing"/>
    <personTrip from="25935612#1" to="4807837#0" line="ANY" vTypes="motorcycle"/>
    <stop duration="29236" edge="4807837#0" actType="singing"/>
    <personTrip from="4807837#0" to="23184031" line="ANY" modes="public"/>
    <stop duration="33590" edge="23184031" actType="singing"/>
    <personTrip from="23184031" to="169127821#4" line="ANY" modes="public"/>
    <personTrip from="169127821#4" to="23471064#1" line="ANY" vTypes="passenger"/>
    <stop duration="49597" edge="23471064#1" actType="singing"/>
    <personTrip from="23471064#1" to="23196347" line="ANY" modes="public"/>
    <stop duration="41358" edge="23196347" actType="singing"/>
    <personTrip from="23196347" to="-23032845#0" line="ANY" modes="public"/>
    <personTrip from="-23032845#0" to="-23032837#1" line="ANY" vTypes="motorcycle"/>
    <stop duration="32400" edge="-23032837#1" actType="singing"/>
  </person>
  <person id="p5" depart="0.00">
    <personTrip from="-248760538#1" to="-323714054#0" line="ANY" modes="public"/>
    <stop duration="19565" edge="-323714054#0" actType="singing"/>
    <personTrip from="-323714054#0" to="-27277726#0" line="ANY" modes="public"/>
    <stop duration="41908" edge="-27277726#0" actType="singing"/>
    <personTrip from="-27277726#0" to="-248760538#1" line="ANY" modes="public"/>
    <stop duration="39179" edge="-248760538#1" actType="singing"/>
    <personTrip from="-248760538#1" to="875800264" line="ANY" vTypes="motorcycle"/>
    <stop duration="46678" edge="875800264" actType="singing"/>
    <personTrip from="875800264" to="-248760538#1" line="ANY" vTypes="passenger"/>
    <stop duration="45643" edge="-248760538#1" actType="singing"/>
    <personTrip from="-248760538#1" to="23534522#1" line="ANY" vTypes="passenger"/>
    <stop duration="37037" edge="23534522#1" actType="singing"/>
    <personTrip from="23534522#1" to="-248760538#1" line="ANY" modes="public"/>
    <stop duration="46268" edge="-248760538#1" actType="singing"/>
    <personTrip from="-248760538#1" to="120137122" line="ANY" vTypes="motorcycle"/>
    <stop duration="31246" edge="120137122" actType="singing"/>
    <personTrip from="120137122" to="-248760538#1" line="ANY" vTypes="bicycle"/>
    <stop duration="34215" edge="-248760538#1" actType="singing"/>
    <personTrip from="-248760538#1" to="278898015#0" line="ANY" modes="public"/>
    <stop duration="43983" edge="278898015#0" actType="singing"/>
  </person>
  <person id="p6" depart="0.00">
    <personTrip from="-248760538#1" to="-26684891#1" line="ANY" modes="public"/>
    <stop duration="36428" edge="-26684891#1" actType="singing"/>
    <personTrip from="-26684891#1" to="-248760538#1" line="ANY" modes="public"/>
    <stop duration="32278" edge="-248760538#1" actType="singing"/>
    <personTrip from="-248760538#1" to="448974986" line="ANY" modes="public"/>
    <stop duration="18905" edge="448974986" actType="singing"/>
    <personTrip from="448974986" to="37181832#3" line="ANY" vTypes="bicycle"/>
    <stop duration="32886" edge="37181832#3" actType="singing"/>
    <personTrip from="37181832#3" to="-248760538#1" line="ANY" vTypes="bicycle"/>
    <stop duration="32644" edge="-248760538#1" actType="singing"/>
    <personTrip from="-248760538#1" to="448974986" line="ANY" vTypes="passenger"/>
    <stop duration="17413" edge="448974986" actType="singing"/>
    <personTrip from="448974986" to="-248760538#1" line="ANY" vTypes="passenger"/>
    <stop duration="31758" edge="-248760538#1" actType="singing"/>
    <personTrip from="-248760538#1" to="448974986" line="ANY" modes="public"/>
    <stop duration="20501" edge="448974986" actType="singing"/>
    <personTrip from="448974986" to="-248760538#1" line="ANY" vTypes="bicycle"/>
    <stop duration="44419" edge="-248760538#1" actType="singing"/>
    <personTrip from="-248760538#1" to="-231875722#1" line="ANY" vTypes="motorcycle"/>
    <stop duration="47533" edge="-231875722#1" actType="singing"/>
  </person>
  <person id="p7" depart="0.00">
    <personTrip from="-248760538#1" to="167795338#4" line="ANY" modes="public"/>
    <stop duration="16491" edge="167795338#4" actType="singing"/>
    <personTrip from="167795338#4" to="-25517266#1" line="ANY" modes="public"/>
    <personTrip from="-25517266#1" to="272171169" line="ANY" vTypes="passenger"/>
    <stop duration="46741" edge="272171169" actType="singing"/>
    <personTrip from="272171169" to="823051188#2" line="ANY" modes="public"/>
    <stop duration="40180" edge="823051188#2" actType="singing"/>
    <personTrip from="823051188#2" to="939208039" line="ANY" vTypes="passenger"/>
    <stop duration="37407" edge="939208039" actType="singing"/>
    <personTrip from="939208039" to="-248760538#1" line="ANY" modes="public"/>
    <stop duration="35494" edge="-248760538#1" actType="singing"/>
    <personTrip from="-248760538#1" to="167795338#4" line="ANY" vTypes="passenger"/>
    <stop duration="18215" edge="167795338#4" actType="singing"/>
    <personTrip from="167795338#4" to="-181651728#0" line="ANY" modes="public"/>
    <personTrip from="-181651728#0" to="-31151996#0" line="ANY" vTypes="bicycle"/>
    <stop duration="31689" edge="-31151996#0" actType="singing"/>
    <personTrip from="-31151996#0" to="-248760538#1" line="ANY" modes="public"/>
    <stop duration="39457" edge="-248760538#1" actType="singing"/>
    <personTrip from="-248760538#1" to="167795338#4" line="ANY" vTypes="bicycle"/>
    <stop duration="18303" edge="167795338#4" actType="singing"/>
    <personTrip from="167795338#4" to="-4807751#2" line="ANY" modes="public"/>
    <stop duration="42356" edge="-4807751#2" actType="singing"/>
  </person>
  <person id="p8" depart="0.00">
    <personTrip from="25935612#1" to="27324110#0" line="ANY" modes="public"/>
    <stop duration="29657" edge="27324110#0" actType="singing"/>
    <personTrip from="27324110#0" to="12098782#0" line="ANY" modes="public"/>
    <personTrip from="12098782#0" to="23312967#1" line="ANY" vTypes="motorcycle"/>
    <stop duration="48941" edge="23312967#1" actType="singing"/>
    <personTrip from="23312967#1" to="23184010" line="ANY" modes="public"/>
    <stop duration="40080" edge="23184010" actType="singing"/>
    <personTrip from="23184010" to="24008855#1" line="ANY" modes="public"/>
    <stop duration="29793" edge="24008855#1" actType="singing"/>
    <personTrip from="24008855#1" to="24008852#3" line="ANY" modes="public"/>
    <personTrip from="24008852#3" to="25935612#1" line="ANY" vTypes="bicycle"/>
    <stop duration="32066" edge="25935612#1" actType="singing"/>
    <personTrip from="25935612#1" to="95158562#2" line="ANY" vTypes="bicycle"/>
    <stop duration="41251" edge="95158562#2" actType="singing"/>
    <personTrip from="95158562#2" to="25935612#1" line="ANY" modes="public"/>
    <stop duration="33155" edge="25935612#1" actType="singing"/>
    <personTrip from="25935612#1" to="265099556" line="ANY" vTypes="motorcycle"/>
    <stop duration="42354" edge="265099556" actType="singing"/>
    <personTrip from="265099556" to="23312956#0" line="ANY" modes="public"/>
    <personTrip from="23312956#0" to="25935612#1" line="ANY" vTypes="motorcycle"/>
    <stop duration="29119" edge="25935612#1" actType="singing"/>
    <personTrip from="25935612#1" to="-183048931" line="ANY" vTypes="motorcycle"/>
    <stop duration="30313" edge="-183048931" actType="singing"/>
  </person>
  <person id="p9" depart="0.00">
    <personTrip from="-248760538#1" to="758588895#5" line="ANY" vTypes="bicycle"/>
    <stop duration="37815" edge="758588895#5" actType="singing"/>
    <personTrip from="758588895#5" to="-570009376#0" line="ANY" modes="public"/>
    <personTrip from="-570009376#0" to="-148848234" line="ANY" vTypes="motorcycle"/>
    <stop duration="35777" edge="-148848234" actType="singing"/>
    <personTrip from="-148848234" to="-248760538#1" line="ANY" vTypes="bicycle"/>
    <stop duration="34827" edge="-248760538#1" actType="singing"/>
    <personTrip from="-248760538#1" to="303259035#3" line="ANY" vTypes="motorcycle"/>
    <stop duration="30987" edge="303259035#3" actType="singing"/>
    <personTrip from="303259035#3" to="4807773#2" line="ANY" modes="public"/>
    <stop duration="30772" edge="4807773#2" actType="singing"/>
    <personTrip from="4807773#2" to="-248760538#1" line="ANY" modes="public"/>
    <stop duration="44849" edge="-248760538#1" actType="singing"/>
    <personTrip from="-248760538#1" to="-23312960#0" line="ANY" vTypes="passenger"/>
    <stop duration="37831" edge="-23312960#0" actType="singing"/>
    <personTrip from="-23312960#0" to="-248760538#1" line="ANY" modes="public"/>
    <stop duration="30159" edge="-248760538#1" actType="singing"/>
    <personTrip from="-248760538#1" to="27324110#5" line="ANY" vTypes="motorcycle"/>
    <stop duration="29604" edge="27324110#5" actType="singing"/>
    <personTrip from="27324110#5" to="-248760538#1" line="ANY" modes="public"/>
    <stop duration="38770" edge="-248760538#1" actType="singing"/>
  </person>
</routes>
