<?xml version="1.0" encoding="UTF-8"?>

<!-- generated on 2024-11-21 18:34:34.215562 by gtfs2pt.py v1_19_0+0000-baa66a0f364
  options: -n crr.net.xml <doubleminus>gtfs ../gtfs_realtime.zip <doubleminus>date 20241025 <doubleminus>osm-routes ptlines.xml <doubleminus>repair <doubleminus>vtype-output pt_vtypes.xml
-->

<additional xmlns:xsi="http://www.w3.org/2001/XMLSchema-instance" xsi:noNamespaceSchemaLocation="http://sumo.dlr.de/xsd/additional_file.xsd">
    <trainStop id="de:08116:7800:1:7_0" lane="156199094#3_0" startPos="46.82" endPos="156.82" name="Esslingen (N)" friendlyPos="true">
        <access friendlyPos="true" lane="378237415#2_0" pos="0.39" length="3.57"/>
        <access friendlyPos="true" lane="303780053_0" pos="0.00" length="4.36"/>
        <access friendlyPos="true" lane="156198375_0" pos="0.00" length="5.12"/>
        <access friendlyPos="true" lane="303780052_0" pos="0.00" length="8.53"/>
        <access friendlyPos="true" lane="378237415#1_0" pos="0.21" length="7.43"/>
        <access friendlyPos="true" lane="303780034_0" pos="6.82" length="8.99"/>
        <access friendlyPos="true" lane="1225360361_0" pos="16.40" length="13.21"/>
        <access friendlyPos="true" lane="303780041_0" pos="0.00" length="10.42"/>
        <access friendlyPos="true" lane="303780054_0" pos="0.21" length="13.22"/>
        <access friendlyPos="true" lane="303780072#0_0" pos="0.00" length="14.15"/>
    </trainStop>
    <trainStop id="de:08116:7800:2:6_0" lane="1245275764#1_0" startPos="111.84" endPos="221.84" name="Esslingen (N)" friendlyPos="true">
        <access friendlyPos="true" lane="378237415#2_0" pos="4.86" length="3.83"/>
        <access friendlyPos="true" lane="303780033_0" pos="7.36" length="7.96"/>
        <access friendlyPos="true" lane="378237415#3_0" pos="0.00" length="11.18"/>
        <access friendlyPos="true" lane="303780053_0" pos="0.00" length="11.05"/>
        <access friendlyPos="true" lane="156198375_0" pos="0.00" length="11.26"/>
        <access friendlyPos="true" lane="303780052_0" pos="0.00" length="13.42"/>
        <access friendlyPos="true" lane="378237415#1_0" pos="0.21" length="13.76"/>
        <access friendlyPos="true" lane="303780050_0" pos="0.00" length="13.39"/>
        <access friendlyPos="true" lane="156198376_0" pos="0.00" length="13.79"/>
        <access friendlyPos="true" lane="303780051_0" pos="0.00" length="15.39"/>
    </trainStop>
    <trainStop id="de:08116:7800:2:3_0" lane="156199094#3_0" startPos="48.35" endPos="158.35" name="Esslingen (N)" friendlyPos="true">
        <access friendlyPos="true" lane="303780090#0_0" pos="11.00" length="1.76"/>
        <access friendlyPos="true" lane="303780064_0" pos="0.00" length="8.21"/>
        <access friendlyPos="true" lane="303780090#1_0" pos="0.00" length="10.23"/>
        <access friendlyPos="true" lane="303780037_0" pos="2.68" length="11.42"/>
        <access friendlyPos="true" lane="303780048_0" pos="0.20" length="12.60"/>
        <access friendlyPos="true" lane="303780056_0" pos="0.00" length="13.62"/>
        <access friendlyPos="true" lane="303780090#2_0" pos="0.00" length="16.37"/>
        <access friendlyPos="true" lane="303780030_0" pos="0.00" length="13.62"/>
        <access friendlyPos="true" lane="303780042_0" pos="0.00" length="14.18"/>
        <access friendlyPos="true" lane="303780076#2_0" pos="0.67" length="16.24"/>
    </trainStop>
    <busStop id="de:08111:6091:3:2_0" lane="-540190677_1" startPos="2.01" endPos="15.01" name="Obertürkheim Bf" friendlyPos="true"/>
    <busStop id="de:08111:2543:1:4_0" lane="36989717#1_1" startPos="10.46" endPos="23.46" name="Obertürkh. Bf (Göpp.Str.)" friendlyPos="true"/>
    <busStop id="de:08111:90:0:4_0" lane="317544600#0_1" startPos="0.00" endPos="13.00" name="Bergstaffelstraße" friendlyPos="true"/>
    <busStop id="de:08111:89:0:4_0" lane="29462349#1_1" startPos="13.03" endPos="26.03" name="Ebniseestraße" friendlyPos="true"/>
    <busStop id="de:08111:2519:0:4_0" lane="-548669654#7_0" startPos="0.00" endPos="13.00" name="Haus am Weinberg" friendlyPos="true">
        <access friendlyPos="true" lane="-172268447#6_0" pos="2.27" length="2.50"/>
        <access friendlyPos="true" lane="116342585#0_0" pos="0.00" length="7.41"/>
        <access friendlyPos="true" lane="172268447#6_0" pos="1.94" length="8.50"/>
        <access friendlyPos="true" lane="126440642#1_0" pos="0.21" length="11.02"/>
        <access friendlyPos="true" lane="-172268447#5_0" pos="0.00" length="12.51"/>
        <access friendlyPos="true" lane="172268447#5_0" pos="0.19" length="14.77"/>
        <access friendlyPos="true" lane="126440642#2_0" pos="0.00" length="16.55"/>
        <access friendlyPos="true" lane="-116342585#0_0" pos="0.20" length="15.43"/>
        <access friendlyPos="true" lane="126440642#0_0" pos="2.26" length="18.53"/>
        <access friendlyPos="true" lane="-172268447#7_0" pos="56.14" length="25.28"/>
    </busStop>
    <busStop id="de:08111:87:0:4_0" lane="-24779203#0_0" startPos="225.80" endPos="238.80" name="Neckarhalde" friendlyPos="true">
        <access friendlyPos="true" lane="169957025#0_0" pos="167.39" length="14.03"/>
        <access friendlyPos="true" lane="171031444_0" pos="339.55" length="19.27"/>
        <access friendlyPos="true" lane="-169957025#0_0" pos="503.11" length="22.73"/>
        <access friendlyPos="true" lane="172268446#0_0" pos="0.00" length="72.69"/>
        <access friendlyPos="true" lane="-172268446#0_0" pos="192.31" length="73.49"/>
        <access friendlyPos="true" lane="-80996995#1_0" pos="150.31" length="103.46"/>
        <access friendlyPos="true" lane="80996995#1_0" pos="785.21" length="112.16"/>
        <access friendlyPos="true" lane="-87129048_0" pos="242.11" length="132.31"/>
        <access friendlyPos="true" lane="87129048_0" pos="23.93" length="141.00"/>
    </busStop>
    <busStop id="de:08111:87:0:3_0" lane="24779203#0_0" startPos="0.00" endPos="13.00" name="Neckarhalde" friendlyPos="true">
        <access friendlyPos="true" lane="171031444_0" pos="257.39" length="5.20"/>
        <access friendlyPos="true" lane="169957025#0_0" pos="101.19" length="30.39"/>
        <access friendlyPos="true" lane="-169957025#0_0" pos="569.27" length="39.09"/>
        <access friendlyPos="true" lane="-80996995#1_0" pos="83.45" length="94.23"/>
        <access friendlyPos="true" lane="80996995#1_0" pos="852.04" length="102.93"/>
        <access friendlyPos="true" lane="-87129048_0" pos="265.33" length="120.59"/>
        <access friendlyPos="true" lane="87129048_0" pos="0.00" length="127.56"/>
    </busStop>
    <busStop id="de:08111:2519:0:3_0" lane="431444776#1_0" startPos="0.00" endPos="13.00" name="Haus am Weinberg" friendlyPos="true">
        <access friendlyPos="true" lane="548726850#2_0" pos="229.45" length="5.62"/>
        <access friendlyPos="true" lane="165293593#0_0" pos="0.00" length="19.18"/>
        <access friendlyPos="true" lane="-165293593#0_0" pos="0.20" length="24.51"/>
        <access friendlyPos="true" lane="-172268447#4_0" pos="4.15" length="18.49"/>
        <access friendlyPos="true" lane="172268447#4_0" pos="43.30" length="24.50"/>
        <access friendlyPos="true" lane="-172268447#5_0" pos="0.21" length="33.05"/>
        <access friendlyPos="true" lane="172268447#5_0" pos="0.00" length="36.41"/>
        <access friendlyPos="true" lane="-165293593#1_0" pos="97.16" length="38.78"/>
        <access friendlyPos="true" lane="165293593#1_0" pos="0.00" length="35.95"/>
        <access friendlyPos="true" lane="126440642#0_0" pos="1.65" length="29.81"/>
    </busStop>
    <busStop id="de:08111:89:0:3_0" lane="29462298#0_1" startPos="3.13" endPos="16.13" name="Ebniseestraße" friendlyPos="true"/>
    <busStop id="de:08111:90:0:3_0" lane="-317544600#0_1" startPos="14.35" endPos="27.35" name="Bergstaffelstraße" friendlyPos="true"/>
    <busStop id="de:08111:6091:3:2_1" lane="-676917368#0_1" startPos="8.94" endPos="21.94" name="Obertürkheim Bf" friendlyPos="true"/>
    <busStop id="de:08111:2535:0:4_0" lane="27607327#0_1" startPos="0.00" endPos="13.00" name="Ährenweg" friendlyPos="true"/>
    <busStop id="de:08111:227:2:4_0" lane="161583680_0" startPos="16.18" endPos="29.18" name="Hedelfingen" friendlyPos="true">
        <access friendlyPos="true" lane="-118956835#1_0" pos="40.67" length="0.07"/>
        <access friendlyPos="true" lane="118956835#1_0" pos="26.58" length="5.93"/>
        <access friendlyPos="true" lane="-167825897#0_0" pos="13.40" length="23.31"/>
        <access friendlyPos="true" lane="135165880#1_0" pos="28.12" length="28.99"/>
        <access friendlyPos="true" lane="167825897#0_0" pos="5.64" length="29.33"/>
        <access friendlyPos="true" lane="-167825893#1_0" pos="4.38" length="36.25"/>
        <access friendlyPos="true" lane="871822240_0" pos="0.00" length="37.45"/>
        <access friendlyPos="true" lane="135165880#2_0" pos="0.00" length="44.27"/>
        <access friendlyPos="true" lane="-871822240_0" pos="0.20" length="41.26"/>
        <access friendlyPos="true" lane="-167825898#1_0" pos="0.21" length="37.64"/>
    </busStop>
    <busStop id="de:08111:2534:0:4_0" lane="548822665_0" startPos="26.18" endPos="39.18" name="Otto-Hirsch-Brücken" friendlyPos="true">
        <access friendlyPos="true" lane="-437887946#3_0" pos="162.34" length="2.15"/>
        <access friendlyPos="true" lane="437887946#3_0" pos="45.87" length="8.15"/>
        <access friendlyPos="true" lane="135165721#4_0" pos="41.29" length="18.50"/>
        <access friendlyPos="true" lane="-272813984#0_0" pos="218.50" length="32.63"/>
        <access friendlyPos="true" lane="115179491#2_0" pos="56.85" length="41.33"/>
        <access friendlyPos="true" lane="33079145#0_0" pos="0.00" length="71.47"/>
        <access friendlyPos="true" lane="237153733#0_0" pos="0.20" length="73.28"/>
        <access friendlyPos="true" lane="237153733#1_0" pos="0.00" length="83.31"/>
        <access friendlyPos="true" lane="-237153733#1_0" pos="0.20" length="88.13"/>
        <access friendlyPos="true" lane="-237153733#0_0" pos="0.00" length="79.28"/>
    </busStop>
    <busStop id="de:08111:6091:3:7_0" lane="237155758_0" startPos="70.38" endPos="83.36" name="Obertürkheim Bf" friendlyPos="true">
        <access friendlyPos="true" lane="431480698#1_0" pos="0.00" length="2.29"/>
        <access friendlyPos="true" lane="-344566276#2_0" pos="0.00" length="3.07"/>
        <access friendlyPos="true" lane="-431480698#1_0" pos="0.20" length="5.29"/>
        <access friendlyPos="true" lane="431480698#0_0" pos="0.20" length="5.68"/>
        <access friendlyPos="true" lane="-431480698#0_0" pos="0.00" length="7.29"/>
        <access friendlyPos="true" lane="344566276#2_0" pos="15.42" length="8.84"/>
        <access friendlyPos="true" lane="344566273#0_0" pos="0.00" length="24.73"/>
        <access friendlyPos="true" lane="-344566273#0_0" pos="67.23" length="23.60"/>
        <access friendlyPos="true" lane="569993161#3_0" pos="0.49" length="16.49"/>
        <access friendlyPos="true" lane="-154237026#0_0" pos="3.38" length="14.75"/>
    </busStop>
    <busStop id="de:08111:6091:3:8_0" lane="-570081633_1" startPos="0.00" endPos="13.00" name="Obertürkheim Bf" friendlyPos="true"/>
    <busStop id="de:08111:2533:0:4_0" lane="-570449182#0_1" startPos="0.00" endPos="13.00" name="Im Mäder" friendlyPos="true"/>
    <busStop id="de:08111:2532:0:4_0" lane="-570449183#0_1" startPos="229.60" endPos="242.52" name="Asang" friendlyPos="true"/>
    <busStop id="de:08111:2531:0:4_0" lane="-195389808#1_1" startPos="59.15" endPos="72.15" name="Terlanerstraße" friendlyPos="true"/>
    <busStop id="de:08111:2530:0:3_0" lane="-195389808#0_1" startPos="139.05" endPos="152.05" name="Uhlbach" friendlyPos="true"/>
    <busStop id="de:08111:2530:0:3_1" lane="195389808#0_1" startPos="0.00" endPos="13.00" name="Uhlbach" friendlyPos="true"/>
    <busStop id="de:08111:2531:0:3_0" lane="195389808#0_1" startPos="83.45" endPos="96.45" name="Terlanerstraße" friendlyPos="true"/>
    <busStop id="de:08111:2532:0:3_0" lane="570449183#0_1" startPos="0.00" endPos="13.00" name="Asang" friendlyPos="true"/>
    <busStop id="de:08111:2533:0:3_0" lane="570449182#1_1" startPos="0.00" endPos="13.00" name="Im Mäder" friendlyPos="true"/>
    <busStop id="de:08111:6091:3:1_0" lane="36989717#1_1" startPos="0.00" endPos="13.00" name="Obertürkheim Bf" friendlyPos="true"/>
    <busStop id="de:08111:2534:0:3_0" lane="-548822665_0" startPos="2.87" endPos="15.87" name="Otto-Hirsch-Brücken" friendlyPos="true">
        <access friendlyPos="true" lane="135165721#4_0" pos="31.81" length="3.89"/>
        <access friendlyPos="true" lane="-437887946#3_0" pos="171.94" length="16.58"/>
        <access friendlyPos="true" lane="437887946#3_0" pos="36.27" length="22.59"/>
        <access friendlyPos="true" lane="33079145#0_0" pos="0.00" length="54.16"/>
        <access friendlyPos="true" lane="-272813984#0_0" pos="227.72" length="47.62"/>
        <access friendlyPos="true" lane="115179491#2_0" pos="47.63" length="56.32"/>
        <access friendlyPos="true" lane="237153733#0_0" pos="0.20" length="61.44"/>
        <access friendlyPos="true" lane="237153733#1_0" pos="0.00" length="66.04"/>
        <access friendlyPos="true" lane="-237153733#1_0" pos="0.20" length="71.34"/>
        <access friendlyPos="true" lane="-237153733#0_0" pos="0.00" length="67.24"/>
    </busStop>
    <busStop id="de:08111:227:3:3_0" lane="243216856_0" startPos="34.16" endPos="47.16" name="Hedelfingen" friendlyPos="true">
        <access friendlyPos="true" lane="135165880#1_0" pos="36.48" length="3.05"/>
        <access friendlyPos="true" lane="871822240_0" pos="0.00" length="8.20"/>
        <access friendlyPos="true" lane="135165880#2_0" pos="0.00" length="19.16"/>
        <access friendlyPos="true" lane="-871822240_0" pos="0.20" length="13.38"/>
        <access friendlyPos="true" lane="871822241_0" pos="0.00" length="13.43"/>
        <access friendlyPos="true" lane="871822239_0" pos="0.00" length="13.55"/>
        <access friendlyPos="true" lane="-871822239_0" pos="3.48" length="17.23"/>
        <access friendlyPos="true" lane="868355811#1_0" pos="0.12" length="20.93"/>
        <access friendlyPos="true" lane="236266917#1_0" pos="0.00" length="24.99"/>
        <access friendlyPos="true" lane="-236266917#0_0" pos="0.00" length="31.35"/>
    </busStop>
    <busStop id="de:08111:2535:0:3_0" lane="-27607327#1_1" startPos="25.38" endPos="38.38" name="Ährenweg" friendlyPos="true"/>
    <busStop id="de:08111:2544:0:3_0" lane="27607365#2_1" startPos="53.78" endPos="66.48" name="Am Bergwald" friendlyPos="true"/>
    <busStop id="de:08111:2544:0:4_0" lane="788566318#0_1" startPos="0.00" endPos="13.00" name="Am Bergwald" friendlyPos="true"/>
    <busStop id="de:08111:6091:3:1_1" lane="-676917368#0_1" startPos="0.00" endPos="13.00" name="Obertürkheim Bf" friendlyPos="true"/>
    <busStop id="de:08116:1803:2:6_0" lane="-39761675#3_1" startPos="0.00" endPos="13.00" name="Zell Bf" friendlyPos="true"/>
    <busStop id="de:08116:3807:0:4_0" lane="-39761675#0_1" startPos="258.00" endPos="271.00" name="Zell (Essl.) Alte Heusteige" friendlyPos="true"/>
    <busStop id="de:08116:4024:0:4_0" lane="37177743#1_1" startPos="0.00" endPos="13.00" name="Oberessl. Gartenstadt" friendlyPos="true"/>
    <busStop id="de:08116:4026:0:3_0" lane="283020993#1_1" startPos="34.03" endPos="47.03" name="Oberessl. Weiherstraße" friendlyPos="true"/>
    <busStop id="de:08116:4027:0:3_0" lane="-25973409#2_1" startPos="63.29" endPos="76.29" name="Oberesslingen Zimmerbachstr." friendlyPos="true"/>
    <busStop id="de:08116:4200:1:3_0" lane="38361908#1_1" startPos="15.02" endPos="28.02" name="Oberesslingen Herderstr." friendlyPos="true"/>
    <busStop id="de:08116:4029:0:3_0" lane="281956705#3_1" startPos="3.49" endPos="16.49" name="Oberesslingen Kreuzstr." friendlyPos="true"/>
    <busStop id="de:08116:4004:0:3_0" lane="8026683#4_1" startPos="4.31" endPos="17.31" name="Oberessl. Paracelsusstraße" friendlyPos="true"/>
    <busStop id="de:08116:4031:0:3_0" lane="-23439978#5_1" startPos="14.64" endPos="27.64" name="Esslingen (N) Reutlinger Str." friendlyPos="true"/>
    <busStop id="de:08116:4032:0:4_0" lane="-169224407#3_1" startPos="0.00" endPos="13.00" name="Essl.(N) Ebershaldenfriedhof" friendlyPos="true"/>
    <busStop id="de:08116:4033:0:4_0" lane="29139497#0_1" startPos="0.00" endPos="13.00" name="Esslingen (N) Neckar Forum" friendlyPos="true"/>
    <busStop id="de:08116:4034:1:4_0" lane="94166210#0_1" startPos="0.00" endPos="13.00" name="Esslingen (N) Marktplatz" friendlyPos="true"/>
    <busStop id="de:08116:4007:0:4_0" lane="135078201#1_1" startPos="0.00" endPos="13.00" name="Esslingen (N) Schelztor" friendlyPos="true"/>
    <busStop id="de:08116:7801:3:5_0" lane="156260258_1" startPos="60.95" endPos="73.95" name="Esslingen (N) ZOB" friendlyPos="true"/>
    <busStop id="de:08116:2806:1:4_0" lane="-350217704#2_1" startPos="23.83" endPos="36.83" name="Esslingen (N) Pliensauturm" friendlyPos="true"/>
    <busStop id="de:08116:2800:0:4_0" lane="1157387454_1" startPos="46.42" endPos="59.42" name="Esslingen (N) Maille" friendlyPos="true"/>
    <busStop id="de:08116:4035:1:4_0" lane="-169097419#1_1" startPos="0.00" endPos="13.00" name="Pliensauv. Stuttgarter Str." friendlyPos="true"/>
    <busStop id="de:08116:4036:0:3_0" lane="-911891312_1" startPos="0.00" endPos="13.00" name="Pliensauvorstadt K.-Pfaff-Str." friendlyPos="true"/>
    <busStop id="de:08116:4037:0:5_0" lane="-387498727#0_1" startPos="12.90" endPos="25.90" name="Pliensauv. E.-Bauer-Straße" friendlyPos="true"/>
    <busStop id="de:08116:4064:0:3_0" lane="37721066#1_1" startPos="0.00" endPos="13.00" name="Weil Sportpark Weil" friendlyPos="true"/>
    <busStop id="de:08116:6841:0:4_0" lane="-167641315#2_1" startPos="0.00" endPos="13.00" name="Weil Württembergstr." friendlyPos="true"/>
    <busStop id="de:08116:4065:0:3_0" lane="-4066943#2_1" startPos="5.36" endPos="18.36" name="Weil Wannenrain" friendlyPos="true"/>
    <busStop id="de:08116:4016:0:4_0" lane="-448974992#2_1" startPos="39.69" endPos="52.69" name="Weil Gestütsweg" friendlyPos="true"/>
    <busStop id="de:08116:6841:0:3_0" lane="-167641315#2_1" startPos="0.00" endPos="13.00" name="Weil Württembergstr." friendlyPos="true"/>
    <busStop id="de:08116:6842:0:3_0" lane="-167641315#2_1" startPos="0.00" endPos="13.00" name="Brühl Palmenwaldstr." friendlyPos="true"/>
    <busStop id="de:08116:6842:0:3_1" lane="448974993#0_1" startPos="43.52" endPos="56.52" name="Brühl Palmenwaldstr." friendlyPos="true"/>
    <busStop id="de:08116:6841:0:4_1" lane="448974993#1_1" startPos="0.00" endPos="13.00" name="Weil Württembergstr." friendlyPos="true"/>
    <busStop id="de:08116:6841:0:3_1" lane="169095987_1" startPos="0.00" endPos="13.00" name="Weil Württembergstr." friendlyPos="true"/>
    <busStop id="de:08116:4064:0:4_0" lane="-37721066#2_1" startPos="0.00" endPos="13.00" name="Weil Sportpark Weil" friendlyPos="true"/>
    <busStop id="de:08116:4037:0:4_0" lane="26205357#1_1" startPos="14.82" endPos="27.82" name="Pliensauv. E.-Bauer-Straße" friendlyPos="true"/>
    <busStop id="de:08116:4038:0:3_0" lane="-23032829#1_1" startPos="8.48" endPos="21.48" name="Pliensauv. Parkstraße" friendlyPos="true"/>
    <busStop id="de:08116:4036:0:6_0" lane="-911891326#0_1" startPos="9.42" endPos="22.42" name="Pliensauvorstadt K.-Pfaff-Str." friendlyPos="true"/>
    <busStop id="de:08116:4035:1:3_0" lane="169097419#1_1" startPos="0.00" endPos="13.00" name="Pliensauv. Stuttgarter Str." friendlyPos="true"/>
    <busStop id="de:08116:2800:0:3_0" lane="138203611_1" startPos="33.43" endPos="46.43" name="Esslingen (N) Maille" friendlyPos="true"/>
    <busStop id="de:08116:2806:1:3_0" lane="350217704#2_1" startPos="46.35" endPos="59.32" name="Esslingen (N) Pliensauturm" friendlyPos="true"/>
    <busStop id="de:08116:7801:3:1_0" lane="146911733_1" startPos="9.44" endPos="22.44" name="Esslingen (N) ZOB" friendlyPos="true"/>
    <busStop id="de:08116:4007:0:3_0" lane="-442274138_1" startPos="0.00" endPos="13.00" name="Esslingen (N) Schelztor" friendlyPos="true"/>
    <busStop id="de:08116:4034:1:3_0" lane="29138343#0_1" startPos="47.96" endPos="60.96" name="Esslingen (N) Marktplatz" friendlyPos="true"/>
    <busStop id="de:08116:4033:0:3_0" lane="694012896_1" startPos="23.08" endPos="36.08" name="Esslingen (N) Neckar Forum" friendlyPos="true"/>
    <busStop id="de:08116:4032:0:3_0" lane="23439978#1_1" startPos="0.00" endPos="13.00" name="Essl.(N) Ebershaldenfriedhof" friendlyPos="true"/>
    <busStop id="de:08116:4031:0:4_0" lane="23439978#5_1" startPos="14.35" endPos="27.35" name="Esslingen (N) Reutlinger Str." friendlyPos="true"/>
    <busStop id="de:08116:4004:0:4_0" lane="-8026683#4_1" startPos="233.48" endPos="246.48" name="Oberessl. Paracelsusstraße" friendlyPos="true"/>
    <busStop id="de:08116:4029:0:4_0" lane="-281956705#3_1" startPos="21.06" endPos="34.06" name="Oberesslingen Kreuzstr." friendlyPos="true"/>
    <busStop id="de:08116:4201:1:3_0" lane="-758088375#0_1" startPos="14.05" endPos="27.05" name="Oberessl. Schorndorfer Str." friendlyPos="true"/>
    <busStop id="de:08116:4027:0:4_0" lane="25973409#1_1" startPos="10.40" endPos="23.40" name="Oberesslingen Zimmerbachstr." friendlyPos="true"/>
    <busStop id="de:08116:4026:0:4_0" lane="-283020993#1_1" startPos="0.00" endPos="13.00" name="Oberessl. Weiherstraße" friendlyPos="true"/>
    <busStop id="de:08116:4024:0:3_0" lane="-37177743#1_1" startPos="5.35" endPos="18.35" name="Oberessl. Gartenstadt" friendlyPos="true"/>
    <busStop id="de:08116:3807:0:3_0" lane="39761675#0_1" startPos="11.67" endPos="24.67" name="Zell (Essl.) Alte Heusteige" friendlyPos="true"/>
    <busStop id="de:08116:1803:2:5_0" lane="39761675#3_1" startPos="73.30" endPos="86.30" name="Zell Bf" friendlyPos="true"/>
    <busStop id="de:08116:4173:0:3_0" lane="-394615943_1" startPos="0.00" endPos="13.00" name="Zell (Essl.) Johannesstraße" friendlyPos="true"/>
    <busStop id="de:08111:3995:0:3_0" lane="25995898#1_1" startPos="0.00" endPos="13.00" name="Manzeller Weg" friendlyPos="true"/>
    <busStop id="de:08111:4068:0:3_0" lane="25995898#9_1" startPos="0.00" endPos="13.00" name="Amstetter Straße" friendlyPos="true"/>
    <busStop id="de:08111:4066:0:3_0" lane="295849087#0_1" startPos="72.31" endPos="85.31" name="Mercedes-Benz" friendlyPos="true"/>
    <busStop id="de:08111:4067:0:3_0" lane="295849087#6_1" startPos="9.61" endPos="22.61" name="Am Mittelkai" friendlyPos="true"/>
    <busStop id="de:08111:3996:0:3_0" lane="158513383#1_1" startPos="55.01" endPos="68.01" name="In den Stegwiesen" friendlyPos="true"/>
    <busStop id="de:08111:3997:1:3_0" lane="-35359364#0_0" startPos="63.44" endPos="76.44" name="Hafenbahnstr." friendlyPos="true">
        <access friendlyPos="true" lane="431444821#5_0" pos="72.95" length="8.95"/>
        <access friendlyPos="true" lane="-278896618#2_0" pos="0.00" length="15.78"/>
        <access friendlyPos="true" lane="-344566273#1_0" pos="274.22" length="23.19"/>
        <access friendlyPos="true" lane="278896618#2_0" pos="1.71" length="24.36"/>
        <access friendlyPos="true" lane="-278896618#1_0" pos="0.00" length="23.13"/>
        <access friendlyPos="true" lane="278896618#1_0" pos="123.94" length="29.65"/>
        <access friendlyPos="true" lane="431444821#6_0" pos="0.00" length="33.25"/>
        <access friendlyPos="true" lane="344566273#1_0" pos="22.03" length="26.18"/>
        <access friendlyPos="true" lane="-270554558#0_0" pos="0.21" length="41.86"/>
        <access friendlyPos="true" lane="270554558#0_0" pos="0.00" length="49.65"/>
    </busStop>
    <busStop id="de:08111:4068:0:4_0" lane="-25995898#7_1" startPos="0.00" endPos="13.00" name="Amstetter Straße" friendlyPos="true"/>
    <busStop id="de:08111:3995:0:4_0" lane="-25995898#0_1" startPos="22.84" endPos="35.84" name="Manzeller Weg" friendlyPos="true"/>
    <busStop id="de:08116:4065:0:4_0" lane="4066943#3_1" startPos="54.83" endPos="67.83" name="Weil Wannenrain" friendlyPos="true"/>
    <busStop id="de:08116:4016:0:4_1" lane="448974992#2_1" startPos="33.85" endPos="46.85" name="Weil Gestütsweg" friendlyPos="true"/>
    <busStop id="de:08116:7801:3:8_0" lane="386500268#1_1" startPos="0.00" endPos="13.00" name="Esslingen (N) ZOB" friendlyPos="true"/>
    <busStop id="de:08116:2806:1:6_0" lane="-350217704#2_1" startPos="0.00" endPos="13.00" name="Esslingen (N) Pliensauturm" friendlyPos="true"/>
    <busStop id="de:08116:4040:1:4_0" lane="24511285#2_1" startPos="0.00" endPos="13.00" name="Esslingen (N) Schillerplatz" friendlyPos="true"/>
    <busStop id="de:08116:4041:0:3_0" lane="-24008852#3_1" startPos="40.49" endPos="53.49" name="Esslingen (N) Neckarfreibad" friendlyPos="true"/>
    <busStop id="de:08116:3326:1:3_0" lane="-27531049#4_1" startPos="0.00" endPos="13.00" name="Oberessl. Bf (Süd)" friendlyPos="true"/>
    <busStop id="de:08116:4042:0:3_0" lane="-27531049#1_1" startPos="1.71" endPos="14.71" name="Oberessl. Schwertmühle" friendlyPos="true"/>
    <busStop id="de:08116:4043:0:3_0" lane="-27531049#0_1" startPos="5.87" endPos="18.87" name="Oberesslingen Max-Planck-Str." friendlyPos="true"/>
    <busStop id="de:08116:4044:0:3_0" lane="-376231521#1_1" startPos="0.00" endPos="13.00" name="Oberesslingen Zeppelinstr." friendlyPos="true"/>
    <busStop id="de:08116:4045:0:3_0" lane="-130569445#2_1" startPos="74.42" endPos="87.42" name="Oberesslingen Röntgenstr." friendlyPos="true"/>
    <busStop id="de:08116:4047:0:3_0" lane="-339957401_1" startPos="0.00" endPos="13.00" name="Zell (Essl.) Alleenstraße" friendlyPos="true"/>
    <busStop id="de:08116:4084:0:3_0" lane="-44459774#2_1" startPos="31.05" endPos="44.05" name="Oberessl. Sirnauer Brücke" friendlyPos="true"/>
    <busStop id="de:08116:4052:0:4_0" lane="-38509828#4_1" startPos="25.21" endPos="38.21" name="Sirnau Finkenweg" friendlyPos="true"/>
    <busStop id="de:08116:4051:0:4_0" lane="-38509828#1_1" startPos="22.70" endPos="35.70" name="Sirnau Schwalbenweg" friendlyPos="true"/>
    <busStop id="de:08116:4050:0:3_0" lane="613671973_1" startPos="11.16" endPos="24.16" name="Sirnau Sirnauer Hof" friendlyPos="true"/>
    <busStop id="de:08116:4286:0:3_0" lane="22793492#0_1" startPos="34.72" endPos="47.72" name="Sirnau Eckenerstraße" friendlyPos="true"/>
    <busStop id="de:08116:6758:0:3_0" lane="22793492#3_1" startPos="164.77" endPos="177.77" name="Sirnau Wolf-Hirth-Str." friendlyPos="true"/>
    <busStop id="de:08116:6759:0:3_0" lane="613655965_1" startPos="215.20" endPos="228.20" name="Sirnau Dornierstr." friendlyPos="true"/>
    <busStop id="de:08116:6759:0:4_0" lane="-207082664_1" startPos="35.41" endPos="48.41" name="Sirnau Dornierstr." friendlyPos="true"/>
    <busStop id="de:08116:6758:0:4_0" lane="-22793492#3_1" startPos="111.32" endPos="124.32" name="Sirnau Wolf-Hirth-Str." friendlyPos="true"/>
    <busStop id="de:08116:4286:0:4_0" lane="-22793492#0_1" startPos="58.52" endPos="71.52" name="Sirnau Eckenerstraße" friendlyPos="true"/>
    <busStop id="de:08116:4050:0:4_0" lane="384972990#0-AddedOffRampEdge_0" startPos="0.00" endPos="13.00" name="Sirnau Sirnauer Hof" friendlyPos="true">
        <access friendlyPos="true" lane="-613671973_0" pos="23.11" length="2.55"/>
        <access friendlyPos="true" lane="613671973_0" pos="7.59" length="11.25"/>
        <access friendlyPos="true" lane="207205594#1_0" pos="0.21" length="16.57"/>
        <access friendlyPos="true" lane="207205594#0_0" pos="39.60" length="18.38"/>
        <access friendlyPos="true" lane="379532779#2_0" pos="71.26" length="24.33"/>
        <access friendlyPos="true" lane="-22793479_0" pos="0.00" length="24.00"/>
        <access friendlyPos="true" lane="22793479_0" pos="50.17" length="26.52"/>
        <access friendlyPos="true" lane="681339611#1_0" pos="42.95" length="24.12"/>
        <access friendlyPos="true" lane="-681339609_0" pos="289.15" length="32.81"/>
        <access friendlyPos="true" lane="-613671974_0" pos="17.32" length="46.67"/>
    </busStop>
    <busStop id="de:08116:4084:0:4_0" lane="44459774#2_1" startPos="25.36" endPos="38.36" name="Oberessl. Sirnauer Brücke" friendlyPos="true"/>
    <busStop id="de:08116:4047:0:4_0" lane="169225673_1" startPos="0.86" endPos="13.86" name="Zell (Essl.) Alleenstraße" friendlyPos="true"/>
    <busStop id="de:08116:4045:0:4_0" lane="130569445#2_1" startPos="35.95" endPos="48.95" name="Oberesslingen Röntgenstr." friendlyPos="true"/>
    <busStop id="de:08116:4044:0:4_0" lane="376231521#0_1" startPos="202.39" endPos="215.39" name="Oberesslingen Zeppelinstr." friendlyPos="true"/>
    <busStop id="de:08116:4043:0:4_0" lane="27531049#0_1" startPos="38.34" endPos="51.34" name="Oberesslingen Max-Planck-Str." friendlyPos="true"/>
    <busStop id="de:08116:4042:0:4_0" lane="27531049#1_1" startPos="468.22" endPos="481.22" name="Oberessl. Schwertmühle" friendlyPos="true"/>
    <busStop id="de:08116:3326:2:4_0" lane="392589607#3_1" startPos="0.00" endPos="13.00" name="Oberessl. Bf (Süd)" friendlyPos="true"/>
    <busStop id="de:08116:4041:0:4_0" lane="474485723#3_1" startPos="138.37" endPos="151.37" name="Esslingen (N) Neckarfreibad" friendlyPos="true"/>
    <busStop id="de:08116:4040:1:3_0" lane="189364993#0_1" startPos="48.17" endPos="61.17" name="Esslingen (N) Schillerplatz" friendlyPos="true"/>
    <busStop id="de:08116:7801:3:6_0" lane="178668745_1" startPos="113.80" endPos="126.79" name="Esslingen (N) ZOB" friendlyPos="true"/>
    <busStop id="de:08116:7801:3:6_1" lane="-392441930_1" startPos="21.83" endPos="34.83" name="Esslingen (N) ZOB" friendlyPos="true"/>
    <busStop id="de:08116:4094:0:3_0" lane="-386831075#1_1" startPos="18.25" endPos="31.25" name="Essl.(N) Katharinenstaffel" friendlyPos="true"/>
    <busStop id="de:08116:4063:0:3_0" lane="-8812305#0_1" startPos="355.09" endPos="368.09" name="Esslingen (N) Lenaudenkmal" friendlyPos="true"/>