<?xml version="1.0" encoding="UTF-8"?>

<!-- generated on 2024-04-25 13:53:52.058576 by $Id: ptlines2flows.py v1_3_1+0313-ccb31df3eb jakob.erdmann@dlr.de 2019-09-02 13:26:32 +0200 $ v1_19_0+0000-baa66a0f364
<configuration>
    <net-file value="crr.net.xml"/>
    <ptlines-file value="ptlines.xml"/>
    <ptstops-file value="additional.xml"/>
    <period value="1800.0"/>
    <end value="36000000.0"/>
    <ignore-errors value="True"/>
    <vtype-prefix value="pt_"/>
    <verbose value="True"/>
</configuration>
-->

<routes xmlns:xsi="http://www.w3.org/2001/XMLSchema-instance" xsi:noNamespaceSchemaLocation="http://sumo.dlr.de/xsd/routes_file.xsd">
    <vType id="pt_bus" vClass="bus" speedFactor="0.95"/>
    <vType id="pt_tram" vClass="tram" speedFactor="1.0"/>
    <vType id="pt_train" vClass="rail"/>
    <vType id="pt_subway" vClass="rail_urban"/>
    <vType id="pt_light_rail" vClass="rail_urban"/>
    <vType id="pt_monorail" vClass="rail_urban"/>
    <vType id="pt_trolleybus" vClass="bus" speedFactor="0.95"/>
    <vType id="pt_minibus" vClass="bus" speedFactor="0.95"/>
    <vType id="pt_share_taxi" vClass="taxi" speedFactor="0.95"/>
    <vType id="pt_aerialway" vClass="rail_urban" length="2.5" width="2" personCapacity="4"/>
    <vType id="pt_ferry" vClass="ship"/>
    <trip id="0_bus_114:0" type="pt_bus" depart="0" departLane="best" from="384972991#1" to="846930959">
        <stop busStop="2739052081" duration="30"/>
        <stop busStop="-1254192526" duration="30"/>
        <stop busStop="1219607572" duration="30"/>
        <stop busStop="2626499005" duration="30"/>
        <stop busStop="-3876394650" duration="30"/>
        <stop busStop="1219607569" duration="30"/>
        <stop busStop="2849690352" duration="30"/>
    </trip>
    <trip id="1_bus_114:1" type="pt_bus" depart="0" departLane="best" from="-846930959" to="384972991#1">
        <stop busStop="-2849690352" duration="30"/>
        <stop busStop="3876398764" duration="30"/>
        <stop busStop="3876394650" duration="30"/>
        <stop busStop="-2626499005" duration="30"/>
        <stop busStop="-1219607572" duration="30"/>
        <stop busStop="1254192526" duration="30"/>
        <stop busStop="2739052081" duration="30"/>
    </trip>
    <trip id="2_train_RE_5:0" type="pt_train" depart="0" departLane="best" from="156199094#3" to="48316096#2">
        <stop busStop="2661523902" duration="30"/>
        <stop busStop="3068257018" duration="30"/>
    </trip>
    <trip id="3_bus_816:0" type="pt_bus" depart="0" departLane="best" from="29146499#2" to="294067066#10">
        <stop busStop="320617737" duration="30"/>
        <stop busStop="886304632" duration="30"/>
        <stop busStop="886304631" duration="30"/>
        <stop busStop="-66830400" duration="30"/>
        <stop busStop="6260408369" duration="30"/>
    </trip>
    <trip id="4_bus_114:2" type="pt_bus" depart="0" departLane="best" from="384972991#1" to="846930959">
        <stop busStop="2739052081" duration="30"/>
        <stop busStop="-6515317595" duration="30"/>
        <stop busStop="1219607507" duration="30"/>
        <stop busStop="2626499005" duration="30"/>
        <stop busStop="-3876394649" duration="30"/>
        <stop busStop="1219607569" duration="30"/>
        <stop busStop="2849690352" duration="30"/>
    </trip>
    <trip id="5_bus_106:0" type="pt_bus" depart="0" departLane="best" from="384972991#1" to="846930959">
        <stop busStop="2739052081" duration="30"/>
        <stop busStop="-6515317595" duration="30"/>
        <stop busStop="1219607507" duration="30"/>
        <stop busStop="2626499005" duration="30"/>
        <stop busStop="-3876394649" duration="30"/>
        <stop busStop="1219607569" duration="30"/>
        <stop busStop="2849690352" duration="30"/>
    </trip>
    <trip id="6_train_S1:0" type="pt_train" depart="0" departLane="best" from="292876200#2" to="180784454#2">
        <stop busStop="263337116" duration="30"/>
        <stop busStop="263337125" duration="30"/>
        <stop busStop="1187584571" duration="30"/>
        <stop busStop="1187534664" duration="30"/>
        <stop busStop="3082151227" duration="30"/>
        <stop busStop="1187477995" duration="30"/>
    </trip>
    <trip id="7_bus_138:0" type="pt_bus" depart="0" departLane="best" from="122124925#0" to="390216945#2">
        <stop busStop="764607112" duration="30"/>
        <stop busStop="29027118" duration="30"/>
        <stop busStop="29027150" duration="30"/>
        <stop busStop="3898445268" duration="30"/>
        <stop busStop="2849690655" duration="30"/>
        <stop busStop="2691822202" duration="30"/>
        <stop busStop="29027196" duration="30"/>
        <stop busStop="6537970432" duration="30"/>
        <stop busStop="3876394651" duration="30"/>
        <stop busStop="248825001" duration="30"/>
        <stop busStop="2869390122" duration="30"/>
        <stop busStop="-3872841451" duration="30"/>
        <stop busStop="2869007744" duration="30"/>
        <stop busStop="29027281" duration="30"/>
        <stop busStop="3872841449" duration="30"/>
        <stop busStop="3872841431" duration="30"/>
        <stop busStop="-3872841450" duration="30"/>
        <stop busStop="-3872841419" duration="30"/>
        <stop busStop="3471570207" duration="30"/>
        <stop busStop="-3883265542" duration="30"/>
        <stop busStop="418813574" duration="30"/>
        <stop busStop="443377546" duration="30"/>
        <stop busStop="2724353965" duration="30"/>
        <stop busStop="3369313687" duration="30"/>
        <stop busStop="3425997407" duration="30"/>
        <stop busStop="3933810881" duration="30"/>
    </trip>
    <trip id="8_bus_108:0" type="pt_bus" depart="0" departLane="best" from="-386500268#0" to="-26685613">
        <stop busStop="-3566577210" duration="30"/>
        <stop busStop="-3872841444" duration="30"/>
        <stop busStop="3904477569" duration="30"/>
        <stop busStop="3872841439" duration="30"/>
        <stop busStop="-1104997093" duration="30"/>
        <stop busStop="-3887517742" duration="30"/>
        <stop busStop="-27413246" duration="30"/>
        <stop busStop="254785848" duration="30"/>
        <stop busStop="254785865" duration="30"/>
        <stop busStop="3898445266" duration="30"/>
        <stop busStop="3119585593" duration="30"/>
        <stop busStop="254785773" duration="30"/>
        <stop busStop="-2849690655" duration="30"/>
        <stop busStop="-3898445268" duration="30"/>
        <stop busStop="-3898445272" duration="30"/>
        <stop busStop="-1920592400" duration="30"/>
        <stop busStop="764607112" duration="30"/>
        <stop busStop="-3898445264" duration="30"/>
        <stop busStop="-292664404" duration="30"/>
    </trip>
    <trip id="9_trolleybus_101:0" type="pt_trolleybus" depart="0" departLane="best" from="384338154#2" to="676917368#1">
        <stop busStop="3876394651" duration="30"/>
        <stop busStop="3876398764" duration="30"/>
        <stop busStop="30895400" duration="30"/>
        <stop busStop="3876394650" duration="30"/>
        <stop busStop="3876394655" duration="30"/>
        <stop busStop="3876394647" duration="30"/>
        <stop busStop="-2626499005" duration="30"/>
        <stop busStop="-1219607572" duration="30"/>
        <stop busStop="1254192526" duration="30"/>
        <stop busStop="3566577204" duration="30"/>
        <stop busStop="3876398757" duration="30"/>
        <stop busStop="3876398758" duration="30"/>
        <stop busStop="6501566928" duration="30"/>
        <stop busStop="3872480825" duration="30"/>
        <stop busStop="2939873614" duration="30"/>
        <stop busStop="-3876398770" duration="30"/>
        <stop busStop="3876398763" duration="30"/>
        <stop busStop="6334840685" duration="30"/>
    </trip>
    <trip id="11_bus_131:0" type="pt_bus" depart="0" departLane="best" from="675777502" to="29146499#2">
        <stop busStop="3224629436" duration="30"/>
        <stop busStop="-3872841443" duration="30"/>
        <stop busStop="30863641" duration="30"/>
        <stop busStop="3933810892" duration="30"/>
        <stop busStop="248493258" duration="30"/>
        <stop busStop="-3966025662" duration="30"/>
        <stop busStop="3966025661" duration="30"/>
        <stop busStop="3966025663" duration="30"/>
        <stop busStop="3968318266" duration="30"/>
        <stop busStop="6262815030" duration="30"/>
        <stop busStop="-3968318276" duration="30"/>
        <stop busStop="6262814783" duration="30"/>
        <stop busStop="-4379712496" duration="30"/>
        <stop busStop="-886304580" duration="30"/>
        <stop busStop="320617737" duration="30"/>
    </trip>
    <trip id="12_bus_61:0" type="pt_bus" depart="0" departLane="best" from="-540190677" to="-24779203#0">
        <stop busStop="-5226460705" duration="30"/>
        <stop busStop="430160899" duration="30"/>
        <stop busStop="282837104" duration="30"/>
        <stop busStop="5300400686" duration="30"/>
        <stop busStop="895825813" duration="30"/>
        <stop busStop="-269253233" duration="30"/>
        <stop busStop="-895825801" duration="30"/>
    </trip>
    <trip id="13_bus_61:1" type="pt_bus" depart="0" departLane="best" from="431444776#1" to="-676917368#0">
        <stop busStop="269253233" duration="30"/>
        <stop busStop="895825832" duration="30"/>
        <stop busStop="-5300400686" duration="30"/>
        <stop busStop="-895825744" duration="30"/>
    </trip>
    <trip id="14_bus_122:0" type="pt_bus" depart="0" departLane="best" from="-392441930" to="-101742272#8">
        <stop busStop="-3566577209" duration="30"/>
        <stop busStop="-3872841444" duration="30"/>
        <stop busStop="3904477569" duration="30"/>
        <stop busStop="3872841439" duration="30"/>
        <stop busStop="27413262" duration="30"/>
        <stop busStop="3933810892" duration="30"/>
        <stop busStop="248493258" duration="30"/>
        <stop busStop="-3966025662" duration="30"/>
        <stop busStop="3966025661" duration="30"/>
        <stop busStop="3966025663" duration="30"/>
        <stop busStop="-6088888486" duration="30"/>
    </trip>
    <trip id="15_light_rail_U8:0" type="pt_light_rail" depart="0" departLane="best" from="89344777#0" to="26946516#1">
        <stop busStop="253915614" duration="30"/>
        <stop busStop="271464257" duration="30"/>
        <stop busStop="66828113" duration="30"/>
        <stop busStop="66828122" duration="30"/>
        <stop busStop="270196725" duration="30"/>
        <stop busStop="270599198" duration="30"/>
        <stop busStop="113591455" duration="30"/>
    </trip>
    <trip id="16_light_rail_U8:1" type="pt_light_rail" depart="0" departLane="best" from="26946520#0" to="40985104#4">
        <stop busStop="295255872" duration="30"/>
        <stop busStop="295255894" duration="30"/>
        <stop busStop="295255933" duration="30"/>
        <stop busStop="499482917" duration="30"/>
        <stop busStop="499482936" duration="30"/>
        <stop busStop="499482984" duration="30"/>
        <stop busStop="2015375187" duration="30"/>
    </trip>
    <trip id="17_bus_62:0" type="pt_bus" depart="0" departLane="best" from="27607327#0" to="-195389808#1">
        <stop busStop="895825781" duration="30"/>
        <stop busStop="282836158" duration="30"/>
        <stop busStop="895825803" duration="30"/>
        <stop busStop="895825839" duration="30"/>
        <stop busStop="-895825744" duration="30"/>
        <stop busStop="-278558094" duration="30"/>
        <stop busStop="-287332904" duration="30"/>
        <stop busStop="-5484233589" duration="30"/>
    </trip>
    <trip id="18_bus_65:0" type="pt_bus" depart="0" departLane="best" from="-676917368#0" to="-27607327#1">
        <stop busStop="-895825744" duration="30"/>
        <stop busStop="430160899" duration="30"/>
        <stop busStop="282837104" duration="30"/>
        <stop busStop="-6501447771" duration="30"/>
        <stop busStop="895825756" duration="30"/>
        <stop busStop="-895825842" duration="30"/>
        <stop busStop="-282836338" duration="30"/>
    </trip>
    <trip id="19_bus_65:1" type="pt_bus" depart="0" departLane="best" from="27607327#0" to="-676917368#0">
        <stop busStop="895825781" duration="30"/>
        <stop busStop="282836158" duration="30"/>
        <stop busStop="895825803" duration="30"/>
        <stop busStop="895825839" duration="30"/>
        <stop busStop="-895825744" duration="30"/>
    </trip>
    <trip id="20_bus_119:0" type="pt_bus" depart="0" departLane="best" from="268558823#1" to="-127121917#0">
        <stop busStop="3566577206" duration="30"/>
        <stop busStop="3933810892" duration="30"/>
        <stop busStop="2711169196" duration="30"/>
        <stop busStop="89023451" duration="30"/>
        <stop busStop="3933810893" duration="30"/>
        <stop busStop="-3933810885" duration="30"/>
        <stop busStop="3837694347" duration="30"/>
        <stop busStop="-6184408673" duration="30"/>
        <stop busStop="-282218559" duration="30"/>
    </trip>
    <trip id="21_bus_121:0" type="pt_bus" depart="0" departLane="best" from="-392589607#0" to="613655965">
        <stop busStop="-245017149" duration="30"/>
        <stop busStop="-3883265541" duration="30"/>
        <stop busStop="-3883265532" duration="30"/>
        <stop busStop="-3883265542" duration="30"/>
        <stop busStop="3883265543" duration="30"/>
        <stop busStop="3883265527" duration="30"/>
        <stop busStop="3883265546" duration="30"/>
        <stop busStop="3883265528" duration="30"/>
    </trip>
    <trip id="22_bus_120:0" type="pt_bus" depart="0" departLane="best" from="384972991#1" to="-576816774#0">
        <stop busStop="2739052081" duration="30"/>
        <stop busStop="3933810892" duration="30"/>
        <stop busStop="2711169196" duration="30"/>
        <stop busStop="89023451" duration="30"/>
        <stop busStop="3933810893" duration="30"/>
        <stop busStop="-3933810885" duration="30"/>
        <stop busStop="3837694347" duration="30"/>
        <stop busStop="-2402002149" duration="30"/>
        <stop busStop="-3956605169" duration="30"/>
    </trip>
    <trip id="23_trolleybus_118:0" type="pt_trolleybus" depart="0" departLane="best" from="675777502" to="675777502">
        <stop busStop="3224629436" duration="30"/>
        <stop busStop="3933810892" duration="30"/>
        <stop busStop="2711169196" duration="30"/>
        <stop busStop="89023451" duration="30"/>
        <stop busStop="3280786467" duration="30"/>
        <stop busStop="3947901613" duration="30"/>
        <stop busStop="3947901612" duration="30"/>
        <stop busStop="3238823402" duration="30"/>
        <stop busStop="3947901615" duration="30"/>
        <stop busStop="3279503429" duration="30"/>
        <stop busStop="247224583" duration="30"/>
        <stop busStop="-3947901614" duration="30"/>
        <stop busStop="2426004802" duration="30"/>
        <stop busStop="89023451" duration="30"/>
        <stop busStop="6550964524" duration="30"/>
        <stop busStop="3523843331" duration="30"/>
        <stop busStop="11547007243" duration="30"/>
        <stop busStop="1254192526" duration="30"/>
        <stop busStop="3224629436" duration="30"/>
    </trip>
    <trip id="24_trolleybus_101:1" type="pt_trolleybus" depart="0" departLane="best" from="676917368#1" to="384338154#2">
        <stop busStop="6334840685" duration="30"/>
        <stop busStop="3876394653" duration="30"/>
        <stop busStop="3876398769" duration="30"/>
        <stop busStop="-3872480830" duration="30"/>
        <stop busStop="-3872480827" duration="30"/>
        <stop busStop="-6502440146" duration="30"/>
        <stop busStop="-2649951212" duration="30"/>
        <stop busStop="-3876398757" duration="30"/>
        <stop busStop="3566577208" duration="30"/>
        <stop busStop="-3872841443" duration="30"/>
        <stop busStop="1219607507" duration="30"/>
        <stop busStop="2626499005" duration="30"/>
        <stop busStop="-3876394652" duration="30"/>
        <stop busStop="-3876394654" duration="30"/>
        <stop busStop="-3876394649" duration="30"/>
        <stop busStop="3872841430" duration="30"/>
        <stop busStop="1219607569" duration="30"/>
        <stop busStop="3876394651" duration="30"/>
    </trip>
    <trip id="25_bus_122:1" type="pt_bus" depart="0" departLane="best" from="101742272#8" to="-392441930">
        <stop busStop="3966025664" duration="30"/>
        <stop busStop="-6262815029" duration="30"/>
        <stop busStop="-66731754" duration="30"/>
        <stop busStop="3966025662" duration="30"/>
        <stop busStop="-248493258" duration="30"/>
        <stop busStop="3523843331" duration="30"/>
        <stop busStop="11547007243" duration="30"/>
        <stop busStop="1254192526" duration="30"/>
        <stop busStop="-3566577209" duration="30"/>
    </trip>
    <trip id="27_bus_816:1" type="pt_bus" depart="0" departLane="best" from="-294067066#1" to="29146499#2">
        <stop busStop="-6260408371" duration="30"/>
        <stop busStop="6262814783" duration="30"/>
        <stop busStop="-4379712496" duration="30"/>
        <stop busStop="-886304580" duration="30"/>
        <stop busStop="320617737" duration="30"/>
    </trip>
    <trip id="28_train_S1:1" type="pt_train" depart="0" departLane="best" from="123444522#1" to="23163786#1">
        <stop busStop="3068304222" duration="30"/>
        <stop busStop="3082162048" duration="30"/>
        <stop busStop="263337147" duration="30"/>
        <stop busStop="263337141" duration="30"/>
        <stop busStop="3222963807" duration="30"/>
        <stop busStop="3068257006" duration="30"/>
    </trip>
    <trip id="30_light_rail_U13:0" type="pt_light_rail" depart="0" departLane="best" from="673171637" to="172027782#5">
        <stop busStop="4165943332" duration="30"/>
        <stop busStop="26407025" duration="30"/>
        <stop busStop="26407024" duration="30"/>
        <stop busStop="1749738363" duration="30"/>
    </trip>
    <trip id="31_light_rail_U13:1" type="pt_light_rail" depart="0" departLane="best" from="68552415#0" to="172027783">
        <stop busStop="279915707" duration="30"/>
        <stop busStop="279915677" duration="30"/>
        <stop busStop="279915667" duration="30"/>
        <stop busStop="279930071" duration="30"/>
    </trip>
    <trip id="36_light_rail_U7:0" type="pt_light_rail" depart="0" departLane="best" from="89344777#0" to="26946516#1">
        <stop busStop="253915614" duration="30"/>
        <stop busStop="271464257" duration="30"/>
        <stop busStop="66828113" duration="30"/>
        <stop busStop="66828122" duration="30"/>
        <stop busStop="270196725" duration="30"/>
        <stop busStop="270599198" duration="30"/>
        <stop busStop="113591455" duration="30"/>
    </trip>
    <trip id="37_light_rail_U7:1" type="pt_light_rail" depart="0" departLane="best" from="26946520#0" to="40985104#4">
        <stop busStop="295255872" duration="30"/>
        <stop busStop="295255894" duration="30"/>
        <stop busStop="295255933" duration="30"/>
        <stop busStop="499482917" duration="30"/>
        <stop busStop="499482936" duration="30"/>
        <stop busStop="499482984" duration="30"/>
        <stop busStop="2015375187" duration="30"/>
    </trip>
    <trip id="38_bus_102:0" type="pt_bus" depart="0" departLane="best" from="169225673" to="899604572#2">
        <stop busStop="3471570207" duration="30"/>
        <stop busStop="3872841418" duration="30"/>
        <stop busStop="2888285540" duration="30"/>
        <stop busStop="-3872841449" duration="30"/>
        <stop busStop="-29027281" duration="30"/>
        <stop busStop="10814468128" duration="30"/>
        <stop busStop="2869390122" duration="30"/>
        <stop busStop="-3872841451" duration="30"/>
        <stop busStop="3872841430" duration="30"/>
        <stop busStop="2690529094" duration="30"/>
        <stop busStop="2665707504" duration="30"/>
        <stop busStop="-496276886" duration="30"/>
        <stop busStop="-3872841424" duration="30"/>
        <stop busStop="3872841440" duration="30"/>
        <stop busStop="3872841434" duration="30"/>
        <stop busStop="3872841444" duration="30"/>
        <stop busStop="3566577208" duration="30"/>
        <stop busStop="-3872841443" duration="30"/>
        <stop busStop="30863641" duration="30"/>
        <stop busStop="-3872841446" duration="30"/>
        <stop busStop="-8688252151" duration="30"/>
        <stop busStop="-3076074980" duration="30"/>
        <stop busStop="11343225332" duration="30"/>
        <stop busStop="-3872841437" duration="30"/>
        <stop busStop="-3213014421" duration="30"/>
        <stop busStop="-3872841447" duration="30"/>
        <stop busStop="3872841448" duration="30"/>
    </trip>
    <trip id="39_bus_102:1" type="pt_bus" depart="0" departLane="best" from="-384172580#0" to="899604572#2">
        <stop busStop="-278255586" duration="30"/>
        <stop busStop="-3872841429" duration="30"/>
        <stop busStop="-3872841449" duration="30"/>
        <stop busStop="-29027281" duration="30"/>
        <stop busStop="10814468128" duration="30"/>
        <stop busStop="2869390122" duration="30"/>
        <stop busStop="-3872841451" duration="30"/>
        <stop busStop="3872841430" duration="30"/>
        <stop busStop="2690529094" duration="30"/>
        <stop busStop="2665707504" duration="30"/>
        <stop busStop="-496276886" duration="30"/>
        <stop busStop="-3872841424" duration="30"/>
        <stop busStop="3872841440" duration="30"/>
        <stop busStop="3872841434" duration="30"/>
        <stop busStop="3872841444" duration="30"/>
        <stop busStop="3566577208" duration="30"/>
        <stop busStop="-3872841443" duration="30"/>
        <stop busStop="30863641" duration="30"/>
        <stop busStop="-3872841446" duration="30"/>
        <stop busStop="-8688252151" duration="30"/>
        <stop busStop="-3076074980" duration="30"/>
        <stop busStop="11343225332" duration="30"/>
        <stop busStop="-3872841437" duration="30"/>
        <stop busStop="-3213014421" duration="30"/>
        <stop busStop="-3872841447" duration="30"/>
        <stop busStop="3872841448" duration="30"/>
    </trip>
    <trip id="40_bus_102:2" type="pt_bus" depart="0" departLane="best" from="899604572#2" to="169225673">
        <stop busStop="3872841448" duration="30"/>
        <stop busStop="3872480834" duration="30"/>
        <stop busStop="-3872841423" duration="30"/>
        <stop busStop="3076074768" duration="30"/>
        <stop busStop="-3872841442" duration="30"/>
        <stop busStop="-3872841432" duration="30"/>
        <stop busStop="6502333178" duration="30"/>
        <stop busStop="11547007243" duration="30"/>
        <stop busStop="1254192526" duration="30"/>
        <stop busStop="3566577204" duration="30"/>
        <stop busStop="-3872841444" duration="30"/>
        <stop busStop="3904477569" duration="30"/>
        <stop busStop="3872841439" duration="30"/>
        <stop busStop="2611247039" duration="30"/>
        <stop busStop="496276886" duration="30"/>
        <stop busStop="-3872841435" duration="30"/>
        <stop busStop="-2690529094" duration="30"/>
        <stop busStop="-29027251" duration="30"/>
        <stop busStop="2730173334" duration="30"/>
        <stop busStop="-2869406244" duration="30"/>
        <stop busStop="-2869390055" duration="30"/>
        <stop busStop="29027281" duration="30"/>
        <stop busStop="3872841449" duration="30"/>
        <stop busStop="-3872841450" duration="30"/>
        <stop busStop="-3872841419" duration="30"/>
        <stop busStop="3471570207" duration="30"/>
    </trip>
    <trip id="41_bus_102:3" type="pt_bus" depart="0" departLane="best" from="899604572#2" to="169120941#4">
        <stop busStop="3872841448" duration="30"/>
        <stop busStop="3872480834" duration="30"/>
        <stop busStop="-3872841423" duration="30"/>
        <stop busStop="3076074768" duration="30"/>
        <stop busStop="-3872841442" duration="30"/>
        <stop busStop="-3872841432" duration="30"/>
        <stop busStop="6502333178" duration="30"/>
        <stop busStop="11547007243" duration="30"/>
        <stop busStop="1254192526" duration="30"/>
        <stop busStop="3566577204" duration="30"/>
        <stop busStop="-3872841444" duration="30"/>
        <stop busStop="3904477569" duration="30"/>
        <stop busStop="3872841439" duration="30"/>
        <stop busStop="2611247039" duration="30"/>
        <stop busStop="496276886" duration="30"/>
        <stop busStop="-3872841435" duration="30"/>
        <stop busStop="-2690529094" duration="30"/>
        <stop busStop="-29027251" duration="30"/>
        <stop busStop="2730173334" duration="30"/>
        <stop busStop="-2869406244" duration="30"/>
        <stop busStop="-2869390055" duration="30"/>
        <stop busStop="29027281" duration="30"/>
        <stop busStop="3872841449" duration="30"/>
        <stop busStop="3872841429" duration="30"/>
        <stop busStop="278255586" duration="30"/>
    </trip>
    <trip id="42_bus_102:4" type="pt_bus" depart="0" departLane="best" from="-394615943" to="899604572#2">
        <stop busStop="-3872841431" duration="30"/>
        <stop busStop="3872841429" duration="30"/>
        <stop busStop="278255586" duration="30"/>
        <stop busStop="3872841429" duration="30"/>
        <stop busStop="-3872841449" duration="30"/>
        <stop busStop="-29027281" duration="30"/>
        <stop busStop="10814468128" duration="30"/>
        <stop busStop="2869390122" duration="30"/>
        <stop busStop="-3872841451" duration="30"/>
        <stop busStop="3872841430" duration="30"/>
        <stop busStop="2690529094" duration="30"/>
        <stop busStop="2665707504" duration="30"/>
        <stop busStop="-496276886" duration="30"/>
        <stop busStop="-3872841424" duration="30"/>
        <stop busStop="3872841440" duration="30"/>
        <stop busStop="3872841434" duration="30"/>
        <stop busStop="3872841444" duration="30"/>
        <stop busStop="3566577208" duration="30"/>
        <stop busStop="-3872841443" duration="30"/>
        <stop busStop="30863641" duration="30"/>
        <stop busStop="-3872841446" duration="30"/>
        <stop busStop="-8688252151" duration="30"/>
        <stop busStop="-3076074980" duration="30"/>
        <stop busStop="11343225332" duration="30"/>
        <stop busStop="-3872841437" duration="30"/>
        <stop busStop="-3213014421" duration="30"/>
        <stop busStop="-3872841447" duration="30"/>
        <stop busStop="3872841448" duration="30"/>
    </trip>
    <trip id="43_bus_102:5" type="pt_bus" depart="0" departLane="best" from="899604572#2" to="39551110">
        <stop busStop="3872841448" duration="30"/>
        <stop busStop="3872480834" duration="30"/>
        <stop busStop="-3872841423" duration="30"/>
        <stop busStop="3076074768" duration="30"/>
        <stop busStop="-3872841442" duration="30"/>
        <stop busStop="-3872841432" duration="30"/>
        <stop busStop="6502333178" duration="30"/>
        <stop busStop="11547007243" duration="30"/>
        <stop busStop="1254192526" duration="30"/>
        <stop busStop="3566577204" duration="30"/>
        <stop busStop="-3872841444" duration="30"/>
        <stop busStop="3904477569" duration="30"/>
        <stop busStop="3872841439" duration="30"/>
        <stop busStop="2611247039" duration="30"/>
        <stop busStop="496276886" duration="30"/>
        <stop busStop="-3872841435" duration="30"/>
        <stop busStop="-2690529094" duration="30"/>
        <stop busStop="-29027251" duration="30"/>
        <stop busStop="2730173334" duration="30"/>
        <stop busStop="-2869406244" duration="30"/>
        <stop busStop="-2869390055" duration="30"/>
        <stop busStop="29027281" duration="30"/>
        <stop busStop="3872841449" duration="30"/>
        <stop busStop="3872841431" duration="30"/>
        <stop busStop="10830791667" duration="30"/>
    </trip>
    <trip id="44_bus_103:0" type="pt_bus" depart="0" departLane="best" from="169225673" to="243216856">
        <stop busStop="3471570207" duration="30"/>
        <stop busStop="3872841418" duration="30"/>
        <stop busStop="2888285540" duration="30"/>
        <stop busStop="-3872841449" duration="30"/>
        <stop busStop="-29027281" duration="30"/>
        <stop busStop="10814468128" duration="30"/>
        <stop busStop="2869390122" duration="30"/>
        <stop busStop="-3872841451" duration="30"/>
        <stop busStop="3872841430" duration="30"/>
        <stop busStop="2690529094" duration="30"/>
        <stop busStop="2665707504" duration="30"/>
        <stop busStop="-496276886" duration="30"/>
        <stop busStop="-3872841424" duration="30"/>
        <stop busStop="3872841440" duration="30"/>
        <stop busStop="3872841434" duration="30"/>
        <stop busStop="3872841444" duration="30"/>
        <stop busStop="3566577208" duration="30"/>
        <stop busStop="-3872841443" duration="30"/>
        <stop busStop="30863641" duration="30"/>
        <stop busStop="-3872841446" duration="30"/>
        <stop busStop="-8688252151" duration="30"/>
        <stop busStop="-3076074980" duration="30"/>
        <stop busStop="11343225332" duration="30"/>
        <stop busStop="-3872841437" duration="30"/>
        <stop busStop="-3213014421" duration="30"/>
        <stop busStop="-3872841447" duration="30"/>
        <stop busStop="3472059435" duration="30"/>
        <stop busStop="3874630038" duration="30"/>
        <stop busStop="895825803" duration="30"/>
        <stop busStop="3874630042" duration="30"/>
        <stop busStop="3874630036" duration="30"/>
        <stop busStop="5298471157" duration="30"/>
        <stop busStop="-5299276947" duration="30"/>
        <stop busStop="-6501447771" duration="30"/>
        <stop busStop="325728279" duration="30"/>