<?xml version="1.0" encoding="UTF-8"?>

<!-- generated on 2024-11-02 10:50:06 by Eclipse SUMO duarouter Version 1.19.0
<configuration xmlns:xsi="http://www.w3.org/2001/XMLSchema-instance" xsi:noNamespaceSchemaLocation="http://sumo.dlr.de/xsd/duarouterConfiguration.xsd">

    <input>
        <net-file value="crr.net.xml"/>
        <additional-files value="stopinfos.xml,basic.vType.xml"/>
        <route-files value="data.rou.xml"/>
    </input>

    <output>
        <output-file value="tst.rou.xml"/>
    </output>

</configuration>
-->

<routes xmlns:xsi="http://www.w3.org/2001/XMLSchema-instance" xsi:noNamespaceSchemaLocation="http://sumo.dlr.de/xsd/routes_file.xsd">
    <person id="p0" depart="0.00">
        <walk edges="-127314436#0 -127314436#1 -127314436#2 -127314436#3 -525471069#0 -525471069#1 -156790667#0 432904411#1 -432904411#0 294864311#1 -294864311#0 -130274317#1 -130274317#0 -432904422#2 -432904427#5 -432904427#4 432904427#3 432904427#2 432904427#1 432904427#0 -387401267#12 387401267#11 387401267#10 -387401267#9 -387401267#8 -387401267#7 -387401267#6 -387401267#5 -387401267#4 -387401267#3 -387401267#2 -387401267#1 -387401267#0 160153201 -231875715#2 -231875715#1 -231875715#0 -448036753 1086199879#1 -1086199879#0 -37721059 23100738#1 -53563629#0 -148853991#0 -697552595#1 -697552595#0 448974989 -1062836785#1 -1062836785#0 -1086199881 23100755#0 23094824#1 23094824#0 -23032774 -163737796 -943526837 -264621638#0 -264621638#1 23032780 37181840#0 -37181840#1 -37181840#2 -448036757#0 -448036757#1 448036757#2 -23032776#2 23032776#1 -23032776#0 -439857013 -23032775 22910600 345736587#1 -23093187#2 692610296#0 -264335984 264335982 180664954#0 180664954#1 615394221 180664955 -180664956 -837521439 45733021 692561004 273169661#1 31626956#0 31626956#1 31626956#2 31626956#3 31626956#4 31626956#5 31626956#6 31626956#7 31626956#8 31626956#9 23174408#1 24620747#2 24620747#1 24620747#0 4807770#1 4807770#0 327930728 23184015#1 23184015#0 464511676 439867354 439867353 894722994 458503370 24620633 259814832 1219280684 17059198 -4811328 42229183 4811331#3 4811331#2 199924173 169127821#3 169127821#2 169127821#1 169127821#0 4811332 -60233475 -42229181 202223882 169127822#0 169127822#1 -24436948 -1030803965#1 -1030803965#0 12098782#0 -12098782#1 -12098782#2 -12098782#3 12098782#4 -12098782#5 -12098782#6 -12098782#7 -538359000 -431767318#0 -431767318#1 -431767318#2 387155266 -12098881#0 -12098881#1 -12098881#2 -202580281"/>
        <stop edge="-202580281" duration="48733.00" actType="singing"/>
    </person>
    <person id="p1" depart="0.00">
        <walk edges="-127314436#0 -127314436#1 -127314436#2 -127314436#3 -525471069#0 -525471069#1 -156790667#0 432904411#1 -432904411#0 294864311#1 -294864311#0 -130274317#1 -130274317#0 -432904422#2 -432904427#5 -432904427#4 432904427#3 432904427#2 432904427#1 432904427#0 -387401267#12 387401267#11 387401267#10 -387401267#9 -387401267#8 -387401267#7 -387401267#6 -387401267#5 -387401267#4 -387401267#3 -387401267#2 -387401267#1 -387401267#0 160153201 -231875715#2 -231875715#1 -231875715#0 -448036753 1086199879#1 -1086199879#0 -37721059 23100738#1 -53563629#0 -148853991#0 -697552595#1 -697552595#0 448974989 -1062836785#1 -1062836785#0 -1086199881 23100755#0 23094824#1 23094824#0 -23032774 -163737796 -943526837 -264621638#0 -264621638#1 23032780 37181840#0 -37181840#1 -37181840#2 -448036757#0 -448036757#1 448036757#2 -23032776#2 23032776#1 -23032776#0 -439857013 -23032775 22910600 345736587#1 -23093187#2 692610296#0 -264335984 264335982 180664954#0 180664954#1 615394221 180664955 -180664956 -837521439 45733021 692561004 273169661#1 31626956#0 31626956#1 31626956#2 31626956#3 31626956#4 31626956#5 31626956#6 31626956#7 31626956#8 31626956#9"/>
        <stop edge="31626956#9" duration="39567.00" actType="singing"/>
    </person>
    <person id="p2" depart="0.00">
        <walk edges="-127314436#0 -127314436#1 -127314436#2 -127314436#3 -525471069#0 -525471069#1 -156790667#0 432904411#1 -432904411#0 294864311#1 -294864311#0 -130274317#1 -130274317#0 -432904422#2 -432904427#5 -432904427#4 432904427#3 432904427#2 432904427#1 432904427#0 -387401267#12 387401267#11 387401267#10 -387401267#9 -387401267#8 -387401267#7 -387401267#6 -387401267#5 -387401267#4 -387401267#3 -387401267#2 -387401267#1 -387401267#0 160153201 -231875715#2 -231875715#1 -231875715#0 -448036753 1086199879#1 -1086199879#0 -37721059 23100738#1 -53563629#0 -148853991#0 -697552595#1 -697552595#0 448974989 -1062836785#1 -1062836785#0 -1086199881 23100755#0 23094824#1 23094824#0 -23032774 -163737796 -943526837 -264621638#0 -264621638#1 23032780 37181840#0 -37181840#1 -37181840#2 -448036757#0 -448036757#1 448036757#2 -23032776#2 23032776#1 -23032776#0 -439857013 -23032775 22910600 345736587#1 -23093187#2 692610296#0 -264335984 264335982 180664954#0 180664954#1 615394221 180664955 -180664956 -837521439 45733021 692561004 273169661#1 23174410#0 -911970185 -911970184 -31787956 -350217703 -387401257#0 -693946725#1 693946722#1 693946722#0 4807836#1 -350217704#1 -109592895 -1250860603 -290577629#0 -290577629#1 -290577629#2 -54883015 156260251#0 22910603#3 182055652#0 -290577631 -387401256#0 387401256#1 -202630135 -178668743 693946720#1 693946709#0 693946713#2 -17096975#4 -54883018#0 -54883018#1 -54883018#2 -54883018#3 4807837#0"/>
        <stop edge="4807837#0" duration="37135.00" actType="singing"/>
    </person>
    <person id="p3" depart="0.00">
        <walk edges="639832307#0 639832307#1 639911411 639911410#1 639911410#0 156196391#2 387155260#0 290577626 10419532#0 10419531#2 156196384#2 17096030#1 156260255#0 156260255#1 1250554954 138203606#1 138203607 632186818 138203612#0 138203612#1 138203612#2 138203612#3 138203612#4 138203612#5 138203612#6 4807836#0 693946722#0 693946722#1 -693946725#1 -387401257#0 -350217703 -31787956 -911970184 -911970185 23174410#0 273169661#1 692561004 45733021 -837521439 -180664956 180664955 615394221 180664954#1 180664954#0 264335982 -264335984 692610296#0 -23093187#2 345736587#1 22910600 -23032775 -439857013 -23032776#0 23032776#1 -23032776#2 448036757#2 -448036757#1 -448036757#0 -37181840#2 -37181840#1 37181840#0 23032780 -264621638#1 -264621638#0 -943526837 -163737796 -23032774 23094824#0 23094824#1 23100755#0 -1086199881 -1062836785#0 -1062836785#1 448974989 -697552595#0 -697552595#1 -148853991#0 -53563629#0 23100738#1 -37721059 -1086199879#0 1086199879#1 -448036753 -231875715#0 -231875715#1 -231875715#2 -163737793#1 242882544#1 -25517289#1 -380402419 -127269899#0 -127269899#1 25518070"/>
        <stop edge="25518070" duration="5399.00" actType="singing"/>
    </person>
    <person id="p4" depart="0.00">
        <walk edges="-26735019 185494489#1 -185494489#0 185494466#0 185494466#1 185494466#2 -403685569#1 -403685569#2 -9514888#9 -9514888#8 -9514888#7 13622240 403685571 16361899#6 43709975 -16361889#2 201507896 449241023#0 449241023#1 449241019 169127798 1036411468 169127863 449240478 449240479#0 449240483#0 -8812305#2 -386831075#0 -386831075#1 694012904 694012889 694012890#1 694012890#0 169224406#1 169224406#0 -38361910 -4807759#6 -4807759#5 -4807759#4 -4807759#3 23184036#4 23184036#3 23184036#2 23184036#1 23184036#0 4807777 -553323249#2 -553323249#1 -553323249#0 -553323250 23184029 41390564 41390578 37870808 220151070#2 220151070#1 220151070#0 17096027#1 156196391#2 387155260#0 290577626 10419532#0 10419531#2 156196384#2 17096030#1 156260255#0 156260255#1 1250554954 138203606#1 138203607 632186818 138203612#0 138203612#1 138203612#2 138203612#3 138203612#4 138203612#5 138203612#6 4807836#0 693946722#0 693946722#1 -693946725#1 -387401257#0 -350217703 -31787956 -911970184 -911970185 23174410#0 273169661#1 692561004 45733021 -837521439 -180664956 180664955 615394221 180664954#1 180664954#0 264335982 -264335984 692610296#0 -23093187#2 345736587#1 22910600 -23032775 -439857013 -23032776#0 23032776#1 -23032776#2 448036757#2 -448036757#1 -448036757#0 -37181840#2 -37181840#1 37181840#0 23032780 -264621638#1 -264621638#0 -943526837 -163737796 -23032774 23094824#0 23094824#1 23100755#0 -1086199881 -1062836785#0 -1062836785#1 448974989 -697552595#0 -697552595#1 -148853991#0 -53563629#0 23100738#1 -37721059 -1086199879#0 1086199879#1 -448036753 -231875715#0 -231875715#1 -231875715#2 -163737793#1 -163737793#0 231875714#0 -231875714#1 393402219#1 393402219#2 -10422292#0 1108686830#1 1108686830#0 1082132472#5 1082132472#6 1082132472#7 184056560#0 184056560#1 23442518#11 -10422292#3 -10422292#4 -10422292#5 -231973174#0 -231973174#1 -25807587#0 184056560#5 184056560#6 184056560#7 184056560#8 -23442280#0 231973175#1 -806491569#1 233665568#1 -233665568#0 -233665570 24649479 -128380202 158878371#0 158878371#1"/>
        <stop edge="158878371#1" duration="42410.00" actType="singing"/>
    </person>
    <person id="p5" depart="0.00">
        <walk edges="5047080#2 5047080#1 5047080#0 220151070#3 37870808 41390578 41390564 23184029 -553323250 23184028#0 23184028#1 23184028#2 23184028#3 23312968 23312959#0 23312959#1 23312959#2 -23312960#0 -23312960#1 -23312960#2 24146206 31155466#2 439857024#2 439867354 439867353 894722994 458503370 24620633 259814832 1219280684 17059198 -4811328 42229183 4811331#3 4811331#2 4811331#1 4811331#0 -787951455 766727735 -592426952 -199665487#0 199665487#1 23463903#1 23463903#0 -794514057#0 -794514057#1 1183764931 -24508745#1 187937877 187937878 187937876 -24511163#13 -24511163#12 -24511163#11 -24511163#10 -24511163#9 24511163#8 24511163#7 -24511163#6 24511163#5 31157172#6 -31157172#7 -31157172#8 -31157172#9 765613427#0 765613426"/>
        <stop edge="765613426" duration="16814.00" actType="singing"/>
    </person>
    <vType id="motorcycle" speedFactor="normc(1.00,0.10,0.20,2.00)" vClass="motorcycle" color="orange" personCapacity="2" latAlignment="arbitrary" minGapLat="0.50" lcPushy="1.0" tau="1.5"/>
    <vehicle id="p6_0" type="motorcycle" depart="triggered">
        <route edges="387401267#11 387401267#12 -387401267#12 -387401267#11 -387401267#10 -387401267#9 -387401267#8 -387401267#7 -387401267#6 -387401267#5 -387401267#4 -387401267#3 -387401267#2 -387401267#1 -387401267#0 -160153201 -231875715#2 -231875715#1 -231875715#0 -448036753 -1086199879#1 -1086199879#0 -37721059 -23100738#1 -23100738#0 -697552595#1 -697552595#0 -448974989 -1062836785#1 -1062836785#0 -1086199881 -23100755#0 22910685#0 22910685#1 23094825 -28673831 -28673835 -37721067 -56255592 -56255594 -9054646 9054644 978314929 37721065#0 37721065#1 37721066#0 37721066#1 37721066#2 261543559 24995209#0 24995209#1 24995209#2 261543546 176337395 -24994588 -176337394 -4067008 -24447633 -261543534 300813715#0 300813715#1 300813715#2 383945632 261543531#0 261543531#1 243261570-AddedOnRampEdge 243261570 243261558 243261573 243261574 243261571 613717231 613717231-AddedOffRampEdge 24957110#1 24957177#0 24957177#1 243261555 33077389#0 33077389#1 244530981#2 244576556 548822668 29556306#0 29556306#1 29556306#2 548822665 548822666 237155758 24780159#0 24780159#1 316814479 35359315#0 35359315#1 35359315#2 431480688 288806327 431444812 25642410#1 25642410#2 5783099#0 5783099#1 5783099#2 288808359 -29461960 5783068 29462004#0 29462004#1 -29462035#0 -22939374#0 22939375#0 -22939381#2 -22939381#1 -22939381#0"/>
    </vehicle>
    <person id="p6" depart="0.00">
        <walk edges="25518101 -101742286#2 -237845240#0 159029499#0 131194126#2 159029501#1 159029501#2 159029501#3 159029501#4 578063498 131194128#8 639921153#0 639921153#1 639921153#2 131194128#1 639921150#1 639921098#1 648572118#0 -648572118#1 393402219#0 393402219#1 23442318#0 23442318#1 -148848241#0 1082132472#1 1082132472#0 -25807546#1 272042577#0 274331566#0 578322986 578322988 578322984 148848232#3 148848232#4 25808230 578322980#1 25908310#1 25908310#0 380397989#0 380397989#1 380397989#2 -25808683#0 -25808683#1 25808683#2 23285078#15 -29701092#0 -29701092#1 -29701092#2 -29701092#3 -29701092#4 -387401267#12 387401267#11"/>
        <ride from="387401267#11" to="-22939381#0" lines="p6_0"/>
        <stop edge="-22939381#0" duration="34127.00" actType="singing"/>
    </person>
    <person id="p7" depart="0.00">
        <walk edges="695712555#2 -695712555#1 -695712555#0 -952794141#0 -952794141#1 952794142#1 -164232288#0 -164232288#1 -164232288#2 -164232288#3 -164232288#4 -164232288#5 -164232288#6 164232288#7 -380427865 -9054587#3 -9054587#2 -9054587#1 9054570 156261081#6 -317594546 317594596#23 317594507 317594527 317594446 317594478 317594513 317594449 317594487 317594535 317594458 317594515 317594548 317594489 317594524 317594463 317594503 317594453 317594494 317594543 317594465 317594519 317594438 -317594344#1 317594594 400416445#7 10417266#0 -10417266#1 -10417266#2 -10417266#3 -640561279#1 -640561279#0 -958940496 -219260380#7 -219260380#8 -219260380#9 -219260380#10 -219260380#11 -219260380#12 -697552596#0 -697552596#1 910080125 -910080126 -264621638#1 23032780 37181840#0 -37181840#1"/>
        <walk edges="-37181840#1 -37181840#2 -448036757#0 -448036757#1 448036757#2 -23032776#2 23032776#1 -23032776#0 -439857013 -23032775 22910600 345736587#1 -23093187#2 692610296#0 -264335984 264335982 180664954#0 180664954#1 615394221 180664955 -180664956 -837521439 45733021 692561004 273169661#1 31626956#0 31626956#1 31626956#2 31626956#3 31626956#4 31626956#5 31626956#6"/>
        <stop edge="31626956#6" duration="40503.00" actType="singing"/>
    </person>
    <person id="p8" depart="0.00">
        <walk edges="31828759#1 31828760 31828752#2 31828758 27324124#2 27324124#3 27324110#0 -27324202#0 -12098782#2 -12098782#1 12098782#0 -1030803965#0 -1030803965#1 -24436948 169127822#1 169127822#0 202223882 -42229181 -60233475 4811332 169127821#0 169127821#1 169127821#2 169127821#3 199924173 4811331#2 4811331#3 42229183 -4811328 17059198 1219280684 259814832 24620633 458503370 894722994 439867353 439867354 464511676 23184015#0 23184015#1 327930728 4807770#0 4807770#1 24620747#0 24620747#1 24620747#2"/>
        <stop edge="24620747#2" duration="48506.00" actType="singing"/>
    </person>
    <person id="p9" depart="0.00">
        <walk edges="31626956#4 4811293 -31626930 -4807880#1 -4807880#0 -692560999 -823051190 111177316 823051191 4807879#1 316354387#1"/>
        <stop edge="316354387#1" duration="49872.00" actType="singing"/>
    </person>
</routes>
