<?xml version="1.0" ?>
<routes>
  <vType id="passenger" vClass="passenger"/>
  <vType id="bicycle" vClass="bicycle"/>
  <vType id="motorcycle" vClass="motorcycle"/>
  <person id="Townie" depart="0.00">
    <personTrip from="33098857" to="25531541#0" line="ANY" modes="public"/>
    <stop duration="760" actType="singing"/>
    <personTrip from="25531541#0" to="33098857" line="ANY" modes="public"/>
    <stop duration="42349" actType="singing"/>
  </person>
  <person id="Gallagher" depart="0.00">
    <personTrip from="-380001159" to="-23163762#0" line="ANY" modes="public"/>
    <stop duration="759" actType="singing"/>
    <personTrip from="-23163762#0" to="280128590" line="ANY" modes="public"/>
    <stop duration="42821" actType="singing"/>
  </person>
  <person id="Barry" depart="0.00">
    <personTrip from="1167625424" to="366025457" line="ANY" vTypes="motorcycle"/>
    <stop duration="42741" actType="singing"/>
    <personTrip from="366025457" to="1167625424" line="ANY" vTypes="bicycle"/>
    <stop duration="42134" actType="singing"/>
  </person>
  <person id="Juliann" depart="0.00">
    <personTrip from="272673704#2" to="9515416#1" line="ANY" modes="public"/>
    <stop duration="42147" actType="singing"/>
    <personTrip from="9515416#1" to="823046840#0" line="ANY" modes="public"/>
    <stop duration="42943" actType="singing"/>
  </person>
  <person id="Caroline" depart="0.00">
    <personTrip from="180784439#1" to="1108004516#2" line="ANY" vTypes="passenger"/>
    <stop duration="42992" actType="singing"/>
    <personTrip from="1108004516#2" to="125223098#2" line="ANY" modes="public"/>
    <stop duration="1118" actType="singing"/>
  </person>
</routes>
