<?xml version="1.0" ?>
<routes>
  <vType id="passenger" vClass="passenger"/>
  <vType id="bicycle" vClass="bicycle"/>
  <vType id="motorcycle" vClass="motorcycle"/>
  <person id="Sherilyn" depart="0.00">
    <personTrip from="42326220" to="1035471353" line="ANY" modes="public"/>
    <stop duration="1185" actType="singing"/>
    <personTrip from="1035471353" to="-185992510" line="ANY" modes="public"/>
    <stop duration="43188" actType="singing"/>
  </person>
  <person id="Roni" depart="0.00">
    <personTrip from="1052773072#0" to="-258841359#2" line="ANY" modes="public"/>
    <stop duration="42507" actType="singing"/>
    <personTrip from="-258841359#2" to="31157172#2" line="ANY" modes="public"/>
    <stop duration="890" actType="singing"/>
  </person>
  <person id="Parwane" depart="0.00">
    <personTrip from="125393301#0" to="57852607#1" line="ANY" vTypes="motorcycle"/>
    <stop duration="42962" actType="singing"/>
    <personTrip from="57852607#1" to="-38152334#5" line="ANY" modes="public"/>
    <stop duration="42881" actType="singing"/>
  </person>
  <person id="Antoine" depart="0.00">
    <personTrip from="-56255591#0" to="694012883#1" line="ANY" vTypes="bicycle"/>
    <stop duration="42834" actType="singing"/>
    <personTrip from="694012883#1" to="-25212268#1" line="ANY" vTypes="motorcycle"/>
    <stop duration="42267" actType="singing"/>
  </person>
  <person id="Ernest" depart="0.00">
    <personTrip from="-23463902#1" to="26520530" line="ANY" vTypes="motorcycle"/>
    <stop duration="42520" actType="singing"/>
    <personTrip from="26520530" to="-23463902#1" line="ANY" modes="public"/>
    <stop duration="42690" actType="singing"/>
  </person>
</routes>
