<?xml version="1.0" encoding="UTF-8"?>

<!-- generated on 2023-05-18 14:38:46.568890 by osmWebWizard.py v1_16_0+0000-94ec4c6cd72
<configuration>
    <allow-fringe.min-length value="1000.0"/>
    <begin value="0"/>
    <end value="3600"/>
    <fringe-factor value="5"/>
    <fringe-start-attributes value="departSpeed=&quot;max&quot;"/>
    <insertion-density value="12.0"/>
    <lanes value="True"/>
    <min-distance.fringe value="10.0"/>
    <min-distance value="300.0"/>
    <net-file value="C:\Users\sader\Sumo\2023-05-18-14-37-49\osm.net.xml.gz"/>
    <remove-loops value="True"/>
    <route-file value="C:\Users\sader\Sumo\2023-05-18-14-37-49\osm.passenger.rou.xml"/>
    <trip-attributes value="departLane=&quot;best&quot;"/>
    <output-trip-file value="C:\Users\sader\Sumo\2023-05-18-14-37-49\osm.passenger.trips.xml"/>
    <prefix value="veh"/>
    <validate value="True"/>
    <vehicle-class value="passenger"/>
</configuration>
-->

<!-- generated on 2023-05-18 14:38:43 by Eclipse SUMO duarouter Version 1.16.0
<configuration xmlns:xsi="http://www.w3.org/2001/XMLSchema-instance" xsi:noNamespaceSchemaLocation="http://sumo.dlr.de/xsd/duarouterConfiguration.xsd">

    <input>
        <net-file value="C:\Users\sader\Sumo\2023-05-18-14-37-49\osm.net.xml.gz"/>
        <route-files value="C:\Users\sader\Sumo\2023-05-18-14-37-49\osm.passenger.trips.xml"/>
    </input>

    <output>
        <output-file value="C:\Users\sader\Sumo\2023-05-18-14-37-49\osm.passenger.trips.xml.tmp"/>
        <alternatives-output value="NUL"/>
        <write-trips value="true"/>
    </output>

    <processing>
        <remove-loops value="true"/>
    </processing>

    <time>
        <begin value="0"/>
        <end value="3600"/>
    </time>

    <report>
        <no-warnings value="true"/>
        <ignore-errors value="true"/>
        <no-step-log value="true"/>
    </report>

</configuration>
-->

<routes xmlns:xsi="http://www.w3.org/2001/XMLSchema-instance" xsi:noNamespaceSchemaLocation="http://sumo.dlr.de/xsd/routes_file.xsd">
    <vType id="veh_passenger" vClass="passenger"/>
    <trip id="veh0" type="veh_passenger" depart="0.00" departLane="best" from="-23471019" to="12099346#7"/>
    <trip id="veh1" type="veh_passenger" depart="0.68" departLane="best" from="34424783#1" to="-283020993#3"/>
    <trip id="veh2" type="veh_passenger" depart="1.36" departLane="best" from="274543260#3" to="25973409#0"/>
    <trip id="veh3" type="veh_passenger" depart="2.04" departLane="best" from="45524884#3" to="-23032883#0"/>
    <trip id="veh4" type="veh_passenger" depart="2.72" departLane="best" from="-8026683#8" to="-135078199#7"/>
    <trip id="veh5" type="veh_passenger" depart="3.40" departLane="best" from="-265461454" to="204724398"/>
    <trip id="veh6" type="veh_passenger" depart="4.09" departLane="best" from="-135078199#4" to="-263325721"/>
    <trip id="veh7" type="veh_passenger" depart="4.77" departLane="best" from="23528255#0" to="23100738#1"/>
    <trip id="veh8" type="veh_passenger" depart="5.45" departLane="best" from="-26614529#0" to="23316365"/>
    <trip id="veh9" type="veh_passenger" depart="6.13" departLane="best" from="-38361905#0" to="-10698330#1"/>
    <trip id="veh10" type="veh_passenger" depart="6.81" departLane="best" from="-378237359#5" to="266053738#0"/>
    <trip id="veh11" type="veh_passenger" depart="7.49" departLane="best" from="-412792771" to="-23528387#0"/>
    <trip id="veh12" type="veh_passenger" depart="8.17" departLane="best" from="78043851" to="-474485750#1"/>
    <trip id="veh13" type="veh_passenger" depart="8.85" departLane="best" from="23059834#1" to="-23108338"/>
    <trip id="veh14" type="veh_passenger" depart="9.53" departLane="best" from="399038513#12" to="23415819"/>
    <trip id="veh15" type="veh_passenger" depart="10.21" departLane="best" from="378237367" to="290577631"/>
    <trip id="veh16" type="veh_passenger" depart="10.89" departLane="best" from="191708800" to="88378112"/>
    <trip id="veh17" type="veh_passenger" depart="11.57" departLane="best" from="4811453#3" to="23163774#0"/>
    <trip id="veh18" type="veh_passenger" depart="12.26" departLane="best" departSpeed="max" from="387212710#0" to="-23528207#9"/>
    <trip id="veh19" type="veh_passenger" depart="12.94" departLane="best" from="40817206#5" to="23275175#3"/>
    <trip id="veh20" type="veh_passenger" depart="13.62" departLane="best" from="25973407#1" to="-169127787#0"/>
    <trip id="veh21" type="veh_passenger" depart="14.30" departLane="best" from="-269782617#5" to="-387498728#3"/>
    <trip id="veh22" type="veh_passenger" depart="14.98" departLane="best" from="-22946801#4" to="30010699#1"/>
    <trip id="veh23" type="veh_passenger" depart="15.66" departLane="best" from="-23111554#1" to="-387212684#1"/>
    <trip id="veh25" type="veh_passenger" depart="17.02" departLane="best" from="474485750#0" to="269782616#2"/>
    <trip id="veh26" type="veh_passenger" depart="17.70" departLane="best" from="-317594345#6" to="613717242"/>
    <trip id="veh27" type="veh_passenger" depart="18.38" departLane="best" from="23528216#4" to="23463893#1"/>
    <trip id="veh28" type="veh_passenger" depart="19.06" departLane="best" from="-23528370" to="-29036906#0"/>
    <trip id="veh29" type="veh_passenger" depart="19.75" departLane="best" from="-23528227#0" to="787951055"/>
    <trip id="veh30" type="veh_passenger" depart="20.43" departLane="best" from="926867312" to="243261562"/>
    <trip id="veh31" type="veh_passenger" depart="21.11" departLane="best" from="22910620" to="261563309"/>
    <trip id="veh33" type="veh_passenger" depart="22.47" departLane="best" departSpeed="max" from="-27297291" to="-138203748#1"/>
    <trip id="veh34" type="veh_passenger" depart="23.15" departLane="best" from="-387401267#10" to="383983719"/>
    <trip id="veh35" type="veh_passenger" depart="23.83" departLane="best" from="-26249170" to="-687182914#1"/>
    <trip id="veh36" type="veh_passenger" depart="24.51" departLane="best" from="432904422#1" to="-431767318#2"/>
    <trip id="veh37" type="veh_passenger" depart="25.19" departLane="best" from="23528387#0" to="-9054586"/>
    <trip id="veh38" type="veh_passenger" depart="25.87" departLane="best" from="5047080#1" to="158355468#1"/>
    <trip id="veh39" type="veh_passenger" depart="26.55" departLane="best" from="-317594345#10" to="-324058230#1"/>
    <trip id="veh40" type="veh_passenger" depart="27.23" departLane="best" from="22946880#0" to="378237359#3"/>
    <trip id="veh41" type="veh_passenger" depart="27.92" departLane="best" from="-23111552#3" to="4807774#3"/>
    <trip id="veh42" type="veh_passenger" depart="28.60" departLane="best" from="-57852607#1" to="281956705#0"/>
    <trip id="veh43" type="veh_passenger" depart="29.28" departLane="best" from="9515416#1" to="219110057#6"/>
    <trip id="veh44" type="veh_passenger" depart="29.96" departLane="best" from="-23032884#2" to="-169127813#5"/>
    <trip id="veh45" type="veh_passenger" depart="30.64" departLane="best" departSpeed="max" from="-23184008" to="23528352#2"/>
    <trip id="veh46" type="veh_passenger" depart="31.32" departLane="best" from="350217704#1" to="-1088871993#1"/>
    <trip id="veh47" type="veh_passenger" depart="32.00" departLane="best" from="202555475#0" to="8026683#1"/>
    <trip id="veh48" type="veh_passenger" depart="32.68" departLane="best" from="9514888#9" to="23032791#0"/>
    <trip id="veh49" type="veh_passenger" depart="33.36" departLane="best" from="881678625#7" to="423481788#0"/>
    <trip id="veh50" type="veh_passenger" depart="34.04" departLane="best" from="111177314#0" to="-993217766"/>
    <trip id="veh51" type="veh_passenger" depart="34.72" departLane="best" from="24791522#1" to="-23059801"/>
    <trip id="veh52" type="veh_passenger" depart="35.41" departLane="best" from="-317594345#5" to="243261567"/>
    <trip id="veh53" type="veh_passenger" depart="36.09" departLane="best" departSpeed="max" from="-23184018" to="-12098881#8"/>
    <trip id="veh54" type="veh_passenger" depart="36.77" departLane="best" from="10419531#1" to="758088377#1"/>
    <trip id="veh55" type="veh_passenger" depart="37.45" departLane="best" from="432904421" to="378237359#5"/>
    <trip id="veh56" type="veh_passenger" depart="38.13" departLane="best" from="158355467#8" to="25214012#1"/>
    <trip id="veh57" type="veh_passenger" depart="38.81" departLane="best" from="4811453#7" to="436153517"/>
    <trip id="veh58" type="veh_passenger" depart="39.49" departLane="best" from="-384338154#0" to="243261559"/>
    <trip id="veh59" type="veh_passenger" depart="40.17" departLane="best" from="23275161#1" to="23528344#1"/>
    <trip id="veh60" type="veh_passenger" depart="40.85" departLane="best" from="30998700#2" to="23093008"/>
    <trip id="veh61" type="veh_passenger" depart="41.53" departLane="best" from="324049626" to="23032792#4"/>
    <trip id="veh62" type="veh_passenger" depart="42.21" departLane="best" from="10230452#3" to="-44459774#2"/>
    <trip id="veh63" type="veh_passenger" depart="42.90" departLane="best" from="-12098881#5" to="-586693672#0"/>
    <trip id="veh64" type="veh_passenger" depart="43.58" departLane="best" from="-432904515" to="390216938"/>
    <trip id="veh65" type="veh_passenger" depart="44.26" departLane="best" from="-432904427#5" to="694012897#1"/>
    <trip id="veh66" type="veh_passenger" depart="44.94" departLane="best" from="23032789#1" to="181275262#1"/>
    <trip id="veh67" type="veh_passenger" depart="45.62" departLane="best" from="205275738#1" to="33001985#1"/>
    <trip id="veh68" type="veh_passenger" depart="46.30" departLane="best" from="31133704#2" to="-23320467#4"/>
    <trip id="veh69" type="veh_passenger" depart="46.98" departLane="best" from="-12098782#7" to="23151405#1"/>
    <trip id="veh70" type="veh_passenger" depart="47.66" departLane="best" from="-317594345#11" to="-442274138"/>
    <trip id="veh72" type="veh_passenger" depart="49.02" departLane="best" from="202499345#1" to="29138343#0"/>
    <trip id="veh74" type="veh_passenger" depart="50.38" departLane="best" from="-9514888#5" to="-24511163#3"/>
    <trip id="veh75" type="veh_passenger" depart="51.07" departLane="best" from="383945634#1" to="23094824#0"/>
    <trip id="veh76" type="veh_passenger" depart="51.75" departLane="best" from="23275115" to="28675675#2"/>
    <trip id="veh78" type="veh_passenger" depart="53.11" departLane="best" from="27396983" to="281956710#0"/>
    <trip id="veh80" type="veh_passenger" depart="54.47" departLane="best" departSpeed="max" from="-27297291" to="4811395#1"/>
    <trip id="veh81" type="veh_passenger" depart="55.15" departLane="best" from="4066943#2" to="-219110057#7"/>
    <trip id="veh82" type="veh_passenger" depart="55.83" departLane="best" from="-281901560#1" to="25708890#1"/>
    <trip id="veh83" type="veh_passenger" depart="56.51" departLane="best" from="-264674438" to="-23320720#6"/>
    <trip id="veh84" type="veh_passenger" depart="57.19" departLane="best" from="591252084" to="-23275106"/>
    <trip id="veh85" type="veh_passenger" depart="57.87" departLane="best" from="117527770#2" to="37181836#0"/>
    <trip id="veh86" type="veh_passenger" depart="58.56" departLane="best" from="378237374#0" to="-258841359#2"/>
    <trip id="veh87" type="veh_passenger" depart="59.24" departLane="best" from="23093191#0" to="-118976653"/>
    <trip id="veh89" type="veh_passenger" depart="60.60" departLane="best" from="26738365#1" to="-258841359#3"/>
    <trip id="veh90" type="veh_passenger" depart="61.28" departLane="best" from="-911891312" to="-23119545"/>
    <trip id="veh91" type="veh_passenger" depart="61.96" departLane="best" from="-59054089#2" to="4807759#1"/>
    <trip id="veh92" type="veh_passenger" depart="62.64" departLane="best" from="40817206#5" to="33565555#0"/>
    <trip id="veh93" type="veh_passenger" depart="63.32" departLane="best" from="25214141#2" to="823062063#4"/>
    <trip id="veh94" type="veh_passenger" depart="64.00" departLane="best" from="-8026683#8" to="387212695#0"/>
    <trip id="veh95" type="veh_passenger" depart="64.68" departLane="best" departSpeed="max" from="-29214783" to="560583353#2"/>
    <trip id="veh96" type="veh_passenger" depart="65.36" departLane="best" from="-9514888#6" to="423481795#1"/>
    <trip id="veh97" type="veh_passenger" depart="66.04" departLane="best" from="220150716#2" to="-17096975#2"/>
    <trip id="veh98" type="veh_passenger" depart="66.73" departLane="best" from="974776882" to="399038513#1"/>
    <trip id="veh99" type="veh_passenger" depart="67.41" departLane="best" from="314882256" to="570009376#1"/>
    <trip id="veh100" type="veh_passenger" depart="68.09" departLane="best" from="-399038513#17" to="-24447633"/>
    <trip id="veh101" type="veh_passenger" depart="68.77" departLane="best" from="135078199#0" to="-273990573#2"/>
    <trip id="veh102" type="veh_passenger" depart="69.45" departLane="best" from="586693672#0" to="-187997840#0"/>
    <trip id="veh103" type="veh_passenger" depart="70.13" departLane="best" from="4811453#5" to="911891321"/>
    <trip id="veh104" type="veh_passenger" depart="70.81" departLane="best" from="-317594345#13" to="37181833#1"/>
    <trip id="veh105" type="veh_passenger" depart="71.49" departLane="best" departSpeed="max" from="10424183" to="1103106740#0"/>
    <trip id="veh106" type="veh_passenger" depart="72.17" departLane="best" from="78043851" to="9514888#6"/>
    <trip id="veh107" type="veh_passenger" depart="72.85" departLane="best" from="22910598#1" to="-280128594#3"/>
    <trip id="veh108" type="veh_passenger" depart="73.53" departLane="best" departSpeed="max" from="-23463901" to="-399038513#18"/>
    <trip id="veh109" type="veh_passenger" depart="74.22" departLane="best" from="314882256" to="-23275244#0"/>
    <trip id="veh110" type="veh_passenger" depart="74.90" departLane="best" from="-202555475#1" to="31155462#1"/>
    <trip id="veh111" type="veh_passenger" depart="75.58" departLane="best" from="185953704#3" to="23312959#0"/>
    <trip id="veh112" type="veh_passenger" depart="76.26" departLane="best" from="158513383#0" to="410089904"/>
    <trip id="veh113" type="veh_passenger" depart="76.94" departLane="best" from="-23471082" to="8026679#1"/>
    <trip id="veh114" type="veh_passenger" depart="77.62" departLane="best" departSpeed="max" from="-22946801#5" to="25708882#5"/>
    <trip id="veh115" type="veh_passenger" depart="78.30" departLane="best" from="23184022#0" to="25973388"/>
    <trip id="veh116" type="veh_passenger" depart="78.98" departLane="best" from="-280092621#1" to="23285077#1"/>
    <trip id="veh117" type="veh_passenger" depart="79.66" departLane="best" from="-448974996#1" to="-323107046"/>
    <trip id="veh118" type="veh_passenger" depart="80.34" departLane="best" from="23184014" to="23528209#10"/>
    <trip id="veh119" type="veh_passenger" depart="81.02" departLane="best" from="-788313637" to="23312957#0"/>
    <trip id="veh120" type="veh_passenger" depart="81.70" departLane="best" from="-173309331#0" to="-611781712"/>
    <trip id="veh121" type="veh_passenger" depart="82.39" departLane="best" from="258841359#4" to="280092655"/>
    <trip id="veh122" type="veh_passenger" depart="83.07" departLane="best" from="-281956698#0" to="-9054586"/>
    <trip id="veh123" type="veh_passenger" depart="83.75" departLane="best" from="-200297090" to="-399038515#7"/>
    <trip id="veh124" type="veh_passenger" depart="84.43" departLane="best" from="-387401267#3" to="316354387#1"/>
    <trip id="veh125" type="veh_passenger" depart="85.11" departLane="best" from="-219110057#7" to="158355467#8"/>
    <trip id="veh126" type="veh_passenger" depart="85.79" departLane="best" from="974776881#1" to="-9514888#9"/>
    <trip id="veh127" type="veh_passenger" depart="86.47" departLane="best" from="-220797339" to="273990572#0"/>
    <trip id="veh128" type="veh_passenger" depart="87.15" departLane="best" from="-317594345#13" to="60233472#1"/>
    <trip id="veh129" type="veh_passenger" depart="87.83" departLane="best" from="441764367#0" to="-448974993#0"/>
    <trip id="veh131" type="veh_passenger" depart="89.19" departLane="best" from="-387401261" to="-26733892#2"/>
    <trip id="veh132" type="veh_passenger" depart="89.88" departLane="best" from="23275244#5" to="921020464#1"/>
    <trip id="veh133" type="veh_passenger" depart="90.56" departLane="best" from="-23528356#0" to="-1079774975"/>
    <trip id="veh134" type="veh_passenger" depart="91.24" departLane="best" from="386239020#0" to="-399038515#4"/>
    <trip id="veh136" type="veh_passenger" depart="92.60" departLane="best" from="-23320401#1" to="-23275131#0"/>
    <trip id="veh137" type="veh_passenger" depart="93.28" departLane="best" from="23163783" to="-23163779#1"/>
    <trip id="veh138" type="veh_passenger" depart="93.96" departLane="best" departSpeed="max" from="-33565555#1" to="23439923"/>
    <trip id="veh139" type="veh_passenger" depart="94.64" departLane="best" from="264621638#1" to="-26615070#1"/>
    <trip id="veh140" type="veh_passenger" depart="95.32" departLane="best" from="23439929#3" to="378237361"/>
    <trip id="veh141" type="veh_passenger" depart="96.00" departLane="best" from="138203604#0" to="4811395#0"/>
    <trip id="veh142" type="veh_passenger" depart="96.68" departLane="best" from="-394114218#2" to="-23093187#1"/>
    <trip id="veh144" type="veh_passenger" depart="98.05" departLane="best" from="-1035471354" to="345736602"/>
    <trip id="veh146" type="veh_passenger" depart="99.41" departLane="best" from="281956697" to="-23163767#1"/>
    <trip id="veh147" type="veh_passenger" depart="100.09" departLane="best" from="-88336156#2" to="-1088879820"/>
    <trip id="veh148" type="veh_passenger" depart="100.77" departLane="best" from="22889927#3" to="-45524884#7"/>
    <trip id="veh149" type="veh_passenger" depart="101.45" departLane="best" from="4807778#0" to="23100755#1"/>
    <trip id="veh150" type="veh_passenger" depart="102.13" departLane="best" from="387401262#1" to="23285078#7"/>
    <trip id="veh151" type="veh_passenger" depart="102.81" departLane="best" from="-23439929#0" to="-23320434#6"/>
    <trip id="veh152" type="veh_passenger" depart="103.49" departLane="best" from="-387212684#1" to="4807778#2"/>
    <trip id="veh153" type="veh_passenger" depart="104.17" departLane="best" departSpeed="max" from="36774581" to="423481788#0"/>
    <trip id="veh154" type="veh_passenger" depart="104.85" departLane="best" from="-4807746#3" to="269782617#4"/>
    <trip id="veh155" type="veh_passenger" depart="105.54" departLane="best" departSpeed="max" from="-29214783" to="23163777#2"/>
    <trip id="veh156" type="veh_passenger" depart="106.22" departLane="best" from="-331752492#0" to="45524902"/>
    <trip id="veh157" type="veh_passenger" depart="106.90" departLane="best" from="611781712" to="23528216#3"/>
    <trip id="veh158" type="veh_passenger" depart="107.58" departLane="best" departSpeed="max" from="-23463897#1" to="58761524#2"/>
    <trip id="veh159" type="veh_passenger" depart="108.26" departLane="best" from="412792789#0" to="-900882212"/>
    <trip id="veh160" type="veh_passenger" depart="108.94" departLane="best" from="383945635#1" to="-448974997#2"/>
    <trip id="veh161" type="veh_passenger" depart="109.62" departLane="best" from="-125094680#1" to="29701032#6"/>
    <trip id="veh162" type="veh_passenger" depart="110.30" departLane="best" from="-400416445#3" to="59054089#2"/>
    <trip id="veh163" type="veh_passenger" depart="110.98" departLane="best" from="37181839#2" to="432904388#3"/>
    <trip id="veh164" type="veh_passenger" depart="111.66" departLane="best" from="-911891326#0" to="38361908#1"/>
    <trip id="veh165" type="veh_passenger" depart="112.34" departLane="best" from="345736600" to="231875724#10"/>
    <trip id="veh166" type="veh_passenger" depart="113.03" departLane="best" from="-432904379#0" to="419654735#2"/>
    <trip id="veh167" type="veh_passenger" depart="113.71" departLane="best" from="-26633255#0" to="-387212676"/>
    <trip id="veh168" type="veh_passenger" depart="114.39" departLane="best" from="-139468853" to="-4066943#2"/>
    <trip id="veh169" type="veh_passenger" depart="115.07" departLane="best" from="366030058#1" to="29214751"/>
    <trip id="veh170" type="veh_passenger" depart="115.75" departLane="best" from="122124925#1" to="25973409#2"/>
    <trip id="veh171" type="veh_passenger" depart="116.43" departLane="best" from="-399038513#4" to="432904388#4"/>
    <trip id="veh172" type="veh_passenger" depart="117.11" departLane="best" from="8571803#1" to="-387212710#0"/>
    <trip id="veh173" type="veh_passenger" depart="117.79" departLane="best" from="-387155257#0" to="926867322"/>
    <trip id="veh174" type="veh_passenger" depart="118.47" departLane="best" from="9054584#9" to="-23059671#5"/>
    <trip id="veh175" type="veh_passenger" depart="119.15" departLane="best" from="-654570576#0" to="-23275126"/>
    <trip id="veh176" type="veh_passenger" depart="119.83" departLane="best" from="-881678625#4" to="-25214012#0"/>
    <trip id="veh177" type="veh_passenger" depart="120.51" departLane="best" from="8026683#4" to="-378237362#5"/>
    <trip id="veh178" type="veh_passenger" depart="121.20" departLane="best" departSpeed="max" from="-23174414" to="-12098881#7"/>
    <trip id="veh179" type="veh_passenger" depart="121.88" departLane="best" from="26738365#0" to="42229186"/>
    <trip id="veh180" type="veh_passenger" depart="122.56" departLane="best" from="23275117#1" to="220151070#0"/>
    <trip id="veh181" type="veh_passenger" depart="123.24" departLane="best" from="-537710741#2" to="23275175#2"/>
    <trip id="veh182" type="veh_passenger" depart="123.92" departLane="best" from="-306683410#0" to="27297187"/>
    <trip id="veh183" type="veh_passenger" depart="124.60" departLane="best" from="-10230452#8" to="560711244"/>
    <trip id="veh184" type="veh_passenger" depart="125.28" departLane="best" from="202421489#3" to="280922319"/>
    <trip id="veh186" type="veh_passenger" depart="126.64" departLane="best" departSpeed="max" from="-45524902" to="219110057#3"/>
    <trip id="veh188" type="veh_passenger" depart="128.00" departLane="best" from="387401262#3" to="-403685569#0"/>
    <trip id="veh189" type="veh_passenger" depart="128.69" departLane="best" from="180667064#0" to="-399038515#8"/>
    <trip id="veh190" type="veh_passenger" depart="129.37" departLane="best" departSpeed="max" from="-387212695#1" to="10230452#3"/>
    <trip id="veh191" type="veh_passenger" depart="130.05" departLane="best" from="-59054089#1" to="399038513#0"/>
    <trip id="veh192" type="veh_passenger" depart="130.73" departLane="best" departSpeed="max" from="-23275175#3" to="1079774975"/>
    <trip id="veh194" type="veh_passenger" depart="132.09" departLane="best" from="4807772#1" to="23471091#1"/>
    <trip id="veh195" type="veh_passenger" depart="132.77" departLane="best" from="385405409#0" to="23111552#4"/>
    <trip id="veh196" type="veh_passenger" depart="133.45" departLane="best" from="10230452#2" to="387401267#7"/>
    <trip id="veh197" type="veh_passenger" depart="134.13" departLane="best" from="-903117233#0" to="-23285074#0"/>
    <trip id="veh198" type="veh_passenger" depart="134.81" departLane="best" from="-23528364#2" to="-16361899#6"/>
    <trip id="veh199" type="veh_passenger" depart="135.49" departLane="best" from="9514888#2" to="-273990573#2"/>
    <trip id="veh200" type="veh_passenger" depart="136.17" departLane="best" from="117527770#5" to="4807781#1"/>
    <trip id="veh201" type="veh_passenger" depart="136.86" departLane="best" departSpeed="max" from="36774581" to="-24511163#5"/>
    <trip id="veh202" type="veh_passenger" depart="137.54" departLane="best" departSpeed="max" from="-23032788#4" to="22910596#1"/>
    <trip id="veh203" type="veh_passenger" depart="138.22" departLane="best" from="-23439906#0" to="474485741#0"/>
    <trip id="veh204" type="veh_passenger" depart="138.90" departLane="best" from="386500264#11" to="31626930"/>
    <trip id="veh205" type="veh_passenger" depart="139.58" departLane="best" from="24424042" to="28675675#2"/>
    <trip id="veh206" type="veh_passenger" depart="140.26" departLane="best" departSpeed="max" from="-25708890#1" to="12099346#4"/>
    <trip id="veh207" type="veh_passenger" depart="140.94" departLane="best" from="37721067" to="17076378#0"/>
    <trip id="veh208" type="veh_passenger" depart="141.62" departLane="best" from="399038513#23" to="-22793652#0"/>
    <trip id="veh209" type="veh_passenger" depart="142.30" departLane="best" from="-758088379#0" to="23528377#0"/>
    <trip id="veh210" type="veh_passenger" depart="142.98" departLane="best" from="-25531541#1" to="265461451"/>
    <trip id="veh211" type="veh_passenger" depart="143.66" departLane="best" from="87506019" to="-317594345#5"/>
    <trip id="veh212" type="veh_passenger" depart="144.35" departLane="best" from="-23528406#1" to="10518206"/>
    <trip id="veh213" type="veh_passenger" depart="145.03" departLane="best" from="29138344" to="345736597"/>
    <trip id="veh214" type="veh_passenger" depart="145.71" departLane="best" from="-23163782#0" to="11335855#1"/>
    <trip id="veh216" type="veh_passenger" depart="147.07" departLane="best" from="10492736" to="384338154#2"/>
    <trip id="veh218" type="veh_passenger" depart="148.43" departLane="best" from="23184028#0" to="694116204#1"/>
    <trip id="veh219" type="veh_passenger" depart="149.11" departLane="best" from="448974998#1" to="23471027"/>
    <trip id="veh220" type="veh_passenger" depart="149.79" departLane="best" from="-26521028#1" to="202572130"/>
    <trip id="veh221" type="veh_passenger" depart="150.47" departLane="best" from="387212710#1" to="23111552#3"/>
    <trip id="veh222" type="veh_passenger" depart="151.15" departLane="best" from="-474485750#1" to="30998700#0"/>
    <trip id="veh223" type="veh_passenger" depart="151.83" departLane="best" from="-12098782#3" to="37181837#1"/>
    <trip id="veh224" type="veh_passenger" depart="152.52" departLane="best" from="291431512" to="243216837"/>
    <trip id="veh225" type="veh_passenger" depart="153.20" departLane="best" from="31133704#2" to="-22946807#1"/>
    <trip id="veh226" type="veh_passenger" depart="153.88" departLane="best" departSpeed="max" from="23320502" to="-386500271#1"/>
    <trip id="veh227" type="veh_passenger" depart="154.56" departLane="best" from="-22910619#0" to="387401267#12"/>
    <trip id="veh228" type="veh_passenger" depart="155.24" departLane="best" from="-33563216" to="432904427#5"/>
    <trip id="veh229" type="veh_passenger" depart="155.92" departLane="best" from="202499353#1" to="23439978#6"/>
    <trip id="veh230" type="veh_passenger" depart="156.60" departLane="best" from="-273990572#0" to="26520944#1"/>
    <trip id="veh231" type="veh_passenger" depart="157.28" departLane="best" from="25973410#4" to="-202555475#11"/>
    <trip id="veh232" type="veh_passenger" depart="157.96" departLane="best" from="-654570576#1" to="23094750#0"/>
    <trip id="veh233" type="veh_passenger" depart="158.64" departLane="best" from="-78043860#6" to="-26733892#0"/>
    <trip id="veh234" type="veh_passenger" depart="159.32" departLane="best" departSpeed="max" from="-80083709#2" to="4811331#3"/>
    <trip id="veh235" type="veh_passenger" depart="160.01" departLane="best" from="-23111552#1" to="265461445#0"/>
    <trip id="veh236" type="veh_passenger" depart="160.69" departLane="best" from="400416445#9" to="-340011867"/>
    <trip id="veh237" type="veh_passenger" depart="161.37" departLane="best" from="-5051407#0" to="105914659#1"/>
    <trip id="veh238" type="veh_passenger" depart="162.05" departLane="best" from="-432904427#3" to="-317594345#0"/>
    <trip id="veh239" type="veh_passenger" depart="162.73" departLane="best" from="399038515#6" to="-758088375#0"/>
    <trip id="veh240" type="veh_passenger" depart="163.41" departLane="best" from="-787951056#0" to="-31133704#6"/>
    <trip id="veh242" type="veh_passenger" depart="164.77" departLane="best" from="-26614529#1" to="-281956705#3"/>
    <trip id="veh243" type="veh_passenger" depart="165.45" departLane="best" from="-9054585#1" to="-135078199#0"/>
    <trip id="veh244" type="veh_passenger" depart="166.13" departLane="best" departSpeed="max" from="-40751668#1" to="25973412#2"/>
    <trip id="veh245" type="veh_passenger" depart="166.81" departLane="best" from="592426952" to="-24390152#0"/>
    <trip id="veh246" type="veh_passenger" depart="167.50" departLane="best" from="-115626706" to="-23320456#1"/>
    <trip id="veh247" type="veh_passenger" depart="168.18" departLane="best" from="23320401#4" to="-124051723#1"/>
    <trip id="veh248" type="veh_passenger" depart="168.86" departLane="best" from="-553323250" to="231875724#10"/>
    <trip id="veh249" type="veh_passenger" depart="169.54" departLane="best" from="135078201" to="243261574"/>
    <trip id="veh250" type="veh_passenger" depart="170.22" departLane="best" from="23320404#8" to="-16361889#3"/>
    <trip id="veh251" type="veh_passenger" depart="170.90" departLane="best" from="17096975#1" to="-785623014"/>
    <trip id="veh252" type="veh_passenger" depart="171.58" departLane="best" from="26249174#0" to="-44829112"/>
    <trip id="veh253" type="veh_passenger" depart="172.26" departLane="best" from="261543549#0" to="-785623014"/>
    <trip id="veh254" type="veh_passenger" depart="172.94" departLane="best" from="-29214543#0" to="390216943"/>
    <trip id="veh255" type="veh_passenger" depart="173.62" departLane="best" from="-30010175" to="-22955420#0"/>
    <trip id="veh256" type="veh_passenger" depart="174.30" departLane="best" from="12098881#4" to="23093008"/>
    <trip id="veh257" type="veh_passenger" depart="174.98" departLane="best" from="990451065" to="13622237#1"/>
    <trip id="veh258" type="veh_passenger" depart="175.67" departLane="best" from="23528255#1" to="36774578"/>
    <trip id="veh259" type="veh_passenger" depart="176.35" departLane="best" from="-23528284#4" to="317594345#13"/>