<?xml version="1.0" encoding="UTF-8"?>

<!-- generated on 2023-05-18 14:38:32.501675 by osmWebWizard.py v1_16_0+0000-94ec4c6cd72
<configuration>
    <begin value="0"/>
    <end value="3600"/>
    <fringe-factor value="5"/>
    <fringe-start-attributes value="departSpeed=&quot;max&quot;"/>
    <insertion-density value="4.0"/>
    <min-distance.fringe value="10.0"/>
    <min-distance value="600.0"/>
    <net-file value="C:\Users\sader\Sumo\2023-05-18-14-37-49\osm.net.xml.gz"/>
    <remove-loops value="True"/>
    <route-file value="C:\Users\sader\Sumo\2023-05-18-14-37-49\osm.bus.rou.xml"/>
    <trip-attributes value="departLane=&quot;best&quot;"/>
    <output-trip-file value="C:\Users\sader\Sumo\2023-05-18-14-37-49\osm.bus.trips.xml"/>
    <prefix value="bus"/>
    <validate value="True"/>
    <vclass value="bus"/>
    <vehicle-class value="bus"/>
</configuration>
-->

<!-- generated on 2023-05-18 14:38:31 by Eclipse SUMO duarouter Version 1.16.0
<configuration xmlns:xsi="http://www.w3.org/2001/XMLSchema-instance" xsi:noNamespaceSchemaLocation="http://sumo.dlr.de/xsd/duarouterConfiguration.xsd">

    <input>
        <net-file value="C:\Users\sader\Sumo\2023-05-18-14-37-49\osm.net.xml.gz"/>
        <route-files value="C:\Users\sader\Sumo\2023-05-18-14-37-49\osm.bus.trips.xml"/>
    </input>

    <output>
        <output-file value="C:\Users\sader\Sumo\2023-05-18-14-37-49\osm.bus.trips.xml.tmp"/>
        <alternatives-output value="NUL"/>
        <write-trips value="true"/>
    </output>

    <processing>
        <remove-loops value="true"/>
    </processing>

    <time>
        <begin value="0"/>
        <end value="3600"/>
    </time>

    <report>
        <no-warnings value="true"/>
        <ignore-errors value="true"/>
        <no-step-log value="true"/>
    </report>

</configuration>
-->

<routes xmlns:xsi="http://www.w3.org/2001/XMLSchema-instance" xsi:noNamespaceSchemaLocation="http://sumo.dlr.de/xsd/routes_file.xsd">
    <vType id="bus_bus" vClass="bus"/>
    <trip id="bus0" type="bus_bus" depart="0.00" departLane="best" departSpeed="max" from="23320502" to="-124051723#2"/>
    <trip id="bus1" type="bus_bus" depart="2.03" departLane="best" from="-29701092#2" to="26684342#1"/>
    <trip id="bus2" type="bus_bus" depart="4.07" departLane="best" from="261563364" to="25384966#2"/>
    <trip id="bus3" type="bus_bus" depart="6.10" departLane="best" from="-442274130" to="-23059801"/>
    <trip id="bus4" type="bus_bus" depart="8.13" departLane="best" departSpeed="max" from="-58761524#2" to="135078204#4"/>
    <trip id="bus5" type="bus_bus" depart="10.17" departLane="best" from="25812049" to="202421489#3"/>
    <trip id="bus6" type="bus_bus" depart="12.20" departLane="best" from="-135078204#4" to="25752783#1"/>
    <trip id="bus7" type="bus_bus" depart="14.23" departLane="best" from="-23439978#5" to="23093184"/>
    <trip id="bus8" type="bus_bus" depart="16.27" departLane="best" from="258841359#4" to="23312958#0"/>
    <trip id="bus9" type="bus_bus" depart="18.30" departLane="best" from="-345736571#1" to="-10698330#4"/>
    <trip id="bus10" type="bus_bus" depart="20.33" departLane="best" from="-387401256#1" to="-23528259"/>
    <trip id="bus12" type="bus_bus" depart="24.40" departLane="best" from="23059834#2" to="-23163759#2"/>
    <trip id="bus13" type="bus_bus" depart="26.43" departLane="best" from="387155267" to="23320559#1"/>
    <trip id="bus14" type="bus_bus" depart="28.46" departLane="best" from="-33563216" to="269782617#2"/>
    <trip id="bus15" type="bus_bus" depart="30.50" departLane="best" from="176337397" to="881678625#4"/>
    <trip id="bus16" type="bus_bus" depart="32.53" departLane="best" from="44459773#0" to="-23147277#0"/>
    <trip id="bus17" type="bus_bus" depart="34.56" departLane="best" from="378237362#3" to="23446244#1"/>
    <trip id="bus18" type="bus_bus" depart="36.60" departLane="best" from="391056747" to="23275120#1"/>
    <trip id="bus19" type="bus_bus" depart="38.63" departLane="best" from="25115144" to="-169127796#1"/>
    <trip id="bus20" type="bus_bus" depart="40.66" departLane="best" from="-260983469#4" to="384972994#0"/>
    <trip id="bus21" type="bus_bus" depart="42.70" departLane="best" from="22946807#2" to="-274543260#2"/>
    <trip id="bus22" type="bus_bus" depart="44.73" departLane="best" departSpeed="max" from="-23111554#2" to="37181832#0"/>
    <trip id="bus23" type="bus_bus" depart="46.76" departLane="best" from="23320404#4" to="-537356312#3"/>
    <trip id="bus24" type="bus_bus" depart="48.80" departLane="best" from="-422603723" to="-25973412#2"/>
    <trip id="bus25" type="bus_bus" depart="50.83" departLane="best" departSpeed="max" from="-283022107#3" to="58761524#2"/>
    <trip id="bus26" type="bus_bus" depart="52.86" departLane="best" from="23439929#3" to="23320720#8"/>
    <trip id="bus27" type="bus_bus" depart="54.90" departLane="best" from="23528209#9" to="269782616#2"/>
    <trip id="bus28" type="bus_bus" depart="56.93" departLane="best" from="-23471056#2" to="654570576#0"/>
    <trip id="bus29" type="bus_bus" depart="58.96" departLane="best" from="921020467#2" to="23528330#1"/>
    <trip id="bus30" type="bus_bus" depart="60.99" departLane="best" from="202555475#9" to="-25708798"/>
    <trip id="bus31" type="bus_bus" depart="63.03" departLane="best" from="386831071#1" to="314882254#0"/>
    <trip id="bus32" type="bus_bus" depart="65.06" departLane="best" from="-26249170" to="-149495339#0"/>
    <trip id="bus33" type="bus_bus" depart="67.09" departLane="best" from="-37181839#0" to="-332195429#1"/>
    <trip id="bus34" type="bus_bus" depart="69.13" departLane="best" from="-25576697#3" to="-613710375"/>
    <trip id="bus35" type="bus_bus" depart="71.16" departLane="best" from="-40817206#7" to="-399038513#24"/>
    <trip id="bus36" type="bus_bus" depart="73.19" departLane="best" from="-23471054#0" to="86704644"/>
    <trip id="bus37" type="bus_bus" depart="75.23" departLane="best" from="4807778#0" to="156261081#2"/>
    <trip id="bus38" type="bus_bus" depart="77.26" departLane="best" from="-282513345" to="-29214824"/>
    <trip id="bus39" type="bus_bus" depart="79.29" departLane="best" from="220151070#0" to="-317594345#24"/>
    <trip id="bus40" type="bus_bus" depart="81.33" departLane="best" from="23059834#2" to="474485738"/>
    <trip id="bus41" type="bus_bus" depart="83.36" departLane="best" from="-4807778#2" to="26632895#0"/>
    <trip id="bus42" type="bus_bus" depart="85.39" departLane="best" from="9515059#3" to="202555475#6"/>
    <trip id="bus43" type="bus_bus" depart="87.43" departLane="best" from="-23059671#3" to="-169127822#0"/>
    <trip id="bus44" type="bus_bus" depart="89.46" departLane="best" departSpeed="max" from="-23174414" to="23471139#1"/>
    <trip id="bus45" type="bus_bus" depart="91.49" departLane="best" from="-30998722" to="10417275#1"/>
    <trip id="bus46" type="bus_bus" depart="93.52" departLane="best" from="-202421489#1" to="-686102164#1"/>
    <trip id="bus47" type="bus_bus" depart="95.56" departLane="best" from="9514888#8" to="-22955420#6"/>
    <trip id="bus48" type="bus_bus" depart="97.59" departLane="best" from="8576730#2" to="400416445#8"/>
    <trip id="bus49" type="bus_bus" depart="99.62" departLane="best" from="111177314#1" to="-26633009"/>
    <trip id="bus50" type="bus_bus" depart="101.66" departLane="best" departSpeed="max" from="23736861#0" to="23032845#2"/>
    <trip id="bus51" type="bus_bus" depart="103.69" departLane="best" departSpeed="max" from="-283022107#3" to="23528344#5"/>
    <trip id="bus52" type="bus_bus" depart="105.72" departLane="best" from="-9054584#1" to="694116204#1"/>
    <trip id="bus53" type="bus_bus" depart="107.76" departLane="best" from="-40817206#2" to="-317594345#6"/>
    <trip id="bus54" type="bus_bus" depart="109.79" departLane="best" from="-135078202#1" to="-24511163#13"/>
    <trip id="bus56" type="bus_bus" depart="113.86" departLane="best" from="231875724#10" to="-23528209#6"/>
    <trip id="bus57" type="bus_bus" depart="115.89" departLane="best" from="-273990573#1" to="23032884#4"/>
    <trip id="bus58" type="bus_bus" depart="117.92" departLane="best" from="-29139497#0" to="23032787#11"/>
    <trip id="bus59" type="bus_bus" depart="119.96" departLane="best" from="10230452#4" to="-411123214#1"/>
    <trip id="bus60" type="bus_bus" depart="121.99" departLane="best" from="-12099346#3" to="-560583335#1"/>
    <trip id="bus61" type="bus_bus" depart="124.02" departLane="best" from="412792788#1" to="386832701#0"/>
    <trip id="bus62" type="bus_bus" depart="126.06" departLane="best" from="366025457" to="186039900#3"/>
    <trip id="bus63" type="bus_bus" depart="128.09" departLane="best" from="412792772" to="675674221"/>
    <trip id="bus64" type="bus_bus" depart="130.12" departLane="best" departSpeed="max" from="-23032792#4" to="172404481#4"/>
    <trip id="bus65" type="bus_bus" depart="132.15" departLane="best" from="214352044" to="29701032#7"/>
    <trip id="bus66" type="bus_bus" depart="134.19" departLane="best" from="-280092621#1" to="-23320434#1"/>
    <trip id="bus67" type="bus_bus" depart="136.22" departLane="best" from="10698326#2" to="23111552#0"/>
    <trip id="bus68" type="bus_bus" depart="138.25" departLane="best" from="283020993#0" to="-419654734#4"/>
    <trip id="bus69" type="bus_bus" depart="140.29" departLane="best" from="-591252084" to="26249172#1"/>
    <trip id="bus70" type="bus_bus" depart="142.32" departLane="best" from="181275920" to="269782617#4"/>
    <trip id="bus71" type="bus_bus" depart="144.35" departLane="best" from="25073197#1" to="393019010#1"/>
    <trip id="bus73" type="bus_bus" depart="148.42" departLane="best" departSpeed="max" from="-787900922#1" to="-224106070#1"/>
    <trip id="bus74" type="bus_bus" depart="150.45" departLane="best" departSpeed="max" from="-23196346" to="-26733995#1"/>
    <trip id="bus75" type="bus_bus" depart="152.49" departLane="best" from="-387296022#0" to="23285078#8"/>
    <trip id="bus76" type="bus_bus" depart="154.52" departLane="best" from="-26249176#1" to="26633136"/>
    <trip id="bus77" type="bus_bus" depart="156.55" departLane="best" from="-26205357#1" to="4807768#0"/>
    <trip id="bus78" type="bus_bus" depart="158.59" departLane="best" from="39008607" to="22889927#3"/>
    <trip id="bus79" type="bus_bus" depart="160.62" departLane="best" departSpeed="max" from="-265514833" to="24995209#2"/>
    <trip id="bus80" type="bus_bus" depart="162.65" departLane="best" departSpeed="max" from="-25708890#1" to="-23320593#3"/>
    <trip id="bus81" type="bus_bus" depart="164.69" departLane="best" from="553076445#0" to="231875724#7"/>
    <trip id="bus82" type="bus_bus" depart="166.72" departLane="best" from="10424182" to="33001985#1"/>
    <trip id="bus83" type="bus_bus" depart="168.75" departLane="best" from="340011867" to="-25213998#3"/>
    <trip id="bus84" type="bus_bus" depart="170.78" departLane="best" from="-23094750#1" to="1103106740#0"/>
    <trip id="bus85" type="bus_bus" depart="172.82" departLane="best" from="-600403632#1" to="16361891#1"/>
    <trip id="bus86" type="bus_bus" depart="174.85" departLane="best" from="25973407#1" to="-25214012#1"/>
    <trip id="bus87" type="bus_bus" depart="176.88" departLane="best" departSpeed="max" from="9054586" to="23163762#2"/>
    <trip id="bus88" type="bus_bus" depart="178.92" departLane="best" from="-4811548#1" to="-44459774#1"/>
    <trip id="bus89" type="bus_bus" depart="180.95" departLane="best" from="391056747" to="-29701092#2"/>
    <trip id="bus90" type="bus_bus" depart="182.98" departLane="best" from="-24302935" to="135078204#0"/>
    <trip id="bus91" type="bus_bus" depart="185.02" departLane="best" departSpeed="max" from="-58761524#2" to="37181832#3"/>
    <trip id="bus92" type="bus_bus" depart="187.05" departLane="best" from="-269782617#8" to="-538358997#1"/>
    <trip id="bus93" type="bus_bus" depart="189.08" departLane="best" from="-8026844#3" to="-400416447#1"/>
    <trip id="bus94" type="bus_bus" depart="191.12" departLane="best" from="-197541563#2" to="172404481#2"/>
    <trip id="bus95" type="bus_bus" depart="193.15" departLane="best" from="974776881#3" to="387212679#3"/>
    <trip id="bus96" type="bus_bus" depart="195.18" departLane="best" from="-823062060" to="-54883366#3"/>
    <trip id="bus98" type="bus_bus" depart="199.25" departLane="best" from="1157387459#0" to="-262922769"/>
    <trip id="bus99" type="bus_bus" depart="201.28" departLane="best" from="-4811294" to="-187997840#0"/>
    <trip id="bus100" type="bus_bus" depart="203.32" departLane="best" from="44459774#1" to="9054585#3"/>
    <trip id="bus101" type="bus_bus" depart="205.35" departLane="best" from="-9054584#5" to="10419531#1"/>
    <trip id="bus102" type="bus_bus" depart="207.38" departLane="best" from="-697552595#1" to="-9514888#3"/>
    <trip id="bus103" type="bus_bus" depart="209.41" departLane="best" from="202555475#2" to="26614529#0"/>
    <trip id="bus104" type="bus_bus" depart="211.45" departLane="best" from="23439929#3" to="387212676"/>
    <trip id="bus105" type="bus_bus" depart="213.48" departLane="best" from="8080008#1" to="23275124#1"/>
    <trip id="bus106" type="bus_bus" depart="215.51" departLane="best" from="-185953704#2" to="23275231#0"/>
    <trip id="bus108" type="bus_bus" depart="219.58" departLane="best" from="-22946880#0" to="-25212081#0"/>
    <trip id="bus109" type="bus_bus" depart="221.61" departLane="best" from="23163759#0" to="25384891#3"/>
    <trip id="bus110" type="bus_bus" depart="223.65" departLane="best" from="-26520921#1" to="-23312957#0"/>
    <trip id="bus111" type="bus_bus" depart="225.68" departLane="best" from="43323361#2" to="-29214824"/>
    <trip id="bus112" type="bus_bus" depart="227.71" departLane="best" from="-23151405#0" to="23463893#1"/>
    <trip id="bus113" type="bus_bus" depart="229.75" departLane="best" from="580616774#0" to="23275218#2"/>
    <trip id="bus114" type="bus_bus" depart="231.78" departLane="best" from="25214012#0" to="265491171"/>
    <trip id="bus115" type="bus_bus" depart="233.81" departLane="best" from="-266053738#1" to="787951054"/>
    <trip id="bus116" type="bus_bus" depart="235.85" departLane="best" from="23528352#3" to="-387296014#0"/>
    <trip id="bus117" type="bus_bus" depart="237.88" departLane="best" from="37181840#2" to="28675675#2"/>
    <trip id="bus118" type="bus_bus" depart="239.91" departLane="best" from="-22889927#0" to="156260255#3"/>
    <trip id="bus119" type="bus_bus" depart="241.95" departLane="best" from="9515416#3" to="-9514888#8"/>
    <trip id="bus120" type="bus_bus" depart="243.98" departLane="best" from="22894843" to="-26249189"/>
    <trip id="bus121" type="bus_bus" depart="246.01" departLane="best" from="-283020993#1" to="57852607#3"/>
    <trip id="bus122" type="bus_bus" depart="248.04" departLane="best" from="-419654733#4" to="432904427#2"/>
    <trip id="bus123" type="bus_bus" depart="250.08" departLane="best" from="-42229177" to="23528284#8"/>
    <trip id="bus124" type="bus_bus" depart="252.11" departLane="best" from="383945636#1" to="261563309"/>
    <trip id="bus125" type="bus_bus" depart="254.14" departLane="best" departSpeed="max" from="-23195846" to="911891319#1"/>
    <trip id="bus126" type="bus_bus" depart="256.18" departLane="best" from="23463903#1" to="-108793831#0"/>
    <trip id="bus127" type="bus_bus" depart="258.21" departLane="best" from="366025457" to="-387212710#0"/>
    <trip id="bus128" type="bus_bus" depart="260.24" departLane="best" from="23528209#8" to="60233472#1"/>
    <trip id="bus129" type="bus_bus" depart="262.28" departLane="best" from="-23312960#1" to="-23275161#1"/>
    <trip id="bus130" type="bus_bus" depart="264.31" departLane="best" from="-23163782#0" to="-23163759#1"/>
    <trip id="bus131" type="bus_bus" depart="266.34" departLane="best" departSpeed="max" from="-29214764" to="23320593#5"/>
    <trip id="bus132" type="bus_bus" depart="268.38" departLane="best" from="-25531541#2" to="-258841359#4"/>
    <trip id="bus133" type="bus_bus" depart="270.41" departLane="best" departSpeed="max" from="23320404#0" to="31787956"/>
    <trip id="bus134" type="bus_bus" depart="272.44" departLane="best" from="117527770#5" to="4807768#0"/>
    <trip id="bus135" type="bus_bus" depart="274.48" departLane="best" from="387155258" to="-23108331#0"/>
    <trip id="bus136" type="bus_bus" depart="276.51" departLane="best" from="-600403632#1" to="-36774581"/>
    <trip id="bus137" type="bus_bus" depart="278.54" departLane="best" from="-1035471357#0" to="-30998716#1"/>
    <trip id="bus138" type="bus_bus" depart="280.57" departLane="best" from="23320434#0" to="-317594345#2"/>
    <trip id="bus139" type="bus_bus" depart="282.61" departLane="best" from="26249185#3" to="23111554#2"/>
    <trip id="bus141" type="bus_bus" depart="286.67" departLane="best" from="-22910619#0" to="442274134"/>
    <trip id="bus142" type="bus_bus" depart="288.71" departLane="best" from="4590693#1" to="-23093187#0"/>
    <trip id="bus143" type="bus_bus" depart="290.74" departLane="best" from="383945640" to="23275175#3"/>
    <trip id="bus144" type="bus_bus" depart="292.77" departLane="best" departSpeed="max" from="-23320645" to="-23320404#8"/>
    <trip id="bus145" type="bus_bus" depart="294.81" departLane="best" from="-366030054#3" to="-474485745#0"/>
    <trip id="bus146" type="bus_bus" depart="296.84" departLane="best" from="314882256" to="400416445#7"/>
    <trip id="bus147" type="bus_bus" depart="298.87" departLane="best" from="448974987#2" to="260983469#3"/>
    <trip id="bus148" type="bus_bus" depart="300.91" departLane="best" departSpeed="max" from="29214824" to="207083330"/>
    <trip id="bus149" type="bus_bus" depart="302.94" departLane="best" from="-537356312#0" to="23463897#1"/>
    <trip id="bus150" type="bus_bus" depart="304.97" departLane="best" from="-23439929#0" to="560583353#2"/>
    <trip id="bus151" type="bus_bus" depart="307.01" departLane="best" from="345736597" to="43336935#1"/>
    <trip id="bus152" type="bus_bus" depart="309.04" departLane="best" from="-135078199#4" to="27425567#1"/>
    <trip id="bus153" type="bus_bus" depart="311.07" departLane="best" from="-386831075" to="560711244"/>
    <trip id="bus154" type="bus_bus" depart="313.11" departLane="best" from="31761728" to="4067008"/>
    <trip id="bus155" type="bus_bus" depart="315.14" departLane="best" from="345736597" to="-33002521"/>
    <trip id="bus156" type="bus_bus" depart="317.17" departLane="best" from="261543549#0" to="231875724#8"/>
    <trip id="bus157" type="bus_bus" depart="319.20" departLane="best" from="-1088249304#0" to="-399038515#5"/>
    <trip id="bus158" type="bus_bus" depart="321.24" departLane="best" from="25973386#1" to="-378237362#4"/>
    <trip id="bus159" type="bus_bus" depart="323.27" departLane="best" from="-937779287#0" to="-387498727#0"/>
    <trip id="bus160" type="bus_bus" depart="325.30" departLane="best" from="31424596#0" to="269782617#4"/>
    <trip id="bus161" type="bus_bus" depart="327.34" departLane="best" departSpeed="max" from="-128115937#3" to="-25415556#3"/>
    <trip id="bus162" type="bus_bus" depart="329.37" departLane="best" from="38550860#1" to="40751668#1"/>
    <trip id="bus163" type="bus_bus" depart="331.40" departLane="best" from="-8026683#4" to="37181834#1"/>
    <trip id="bus165" type="bus_bus" depart="335.47" departLane="best" from="9054582#0" to="23032845#1"/>
    <trip id="bus166" type="bus_bus" depart="337.50" departLane="best" from="-57852607#0" to="-23275161#0"/>
    <trip id="bus167" type="bus_bus" depart="339.54" departLane="best" from="8571803#1" to="-24511163#13"/>
    <trip id="bus168" type="bus_bus" depart="341.57" departLane="best" from="78043860#7" to="-323107046"/>
    <trip id="bus169" type="bus_bus" depart="343.60" departLane="best" from="-23167175#0" to="1157387454#1"/>
    <trip id="bus170" type="bus_bus" depart="345.64" departLane="best" from="25973406#1" to="-399038513#16"/>
    <trip id="bus171" type="bus_bus" depart="347.67" departLane="best" from="23184028#3" to="-205275738#1"/>
    <trip id="bus172" type="bus_bus" depart="349.70" departLane="best" from="448974998#0" to="23275118#1"/>
    <trip id="bus173" type="bus_bus" depart="351.74" departLane="best" from="274191618#1" to="26249185#1"/>
    <trip id="bus174" type="bus_bus" depart="353.77" departLane="best" from="-1023926180#2" to="-54883018#2"/>
    <trip id="bus175" type="bus_bus" depart="355.80" departLane="best" from="-180784453" to="-26615070#0"/>
    <trip id="bus176" type="bus_bus" depart="357.83" departLane="best" from="262922769" to="25115144"/>
    <trip id="bus177" type="bus_bus" depart="359.87" departLane="best" from="411123215" to="-22793816"/>
    <trip id="bus178" type="bus_bus" depart="361.90" departLane="best" from="-37181837#0" to="390062305"/>
    <trip id="bus180" type="bus_bus" depart="365.97" departLane="best" from="-366030058#2" to="911891326#1"/>
    <trip id="bus181" type="bus_bus" depart="368.00" departLane="best" from="-4811548#0" to="387155256"/>
    <trip id="bus182" type="bus_bus" depart="370.03" departLane="best" from="586693672#0" to="25415407"/>
    <trip id="bus183" type="bus_bus" depart="372.07" departLane="best" from="45524884#5" to="-23439972#1"/>
    <trip id="bus184" type="bus_bus" depart="374.10" departLane="best" from="-34424783#1" to="23094825"/>
    <trip id="bus185" type="bus_bus" depart="376.13" departLane="best" from="-10230452#3" to="-38152334#5"/>
    <trip id="bus186" type="bus_bus" depart="378.17" departLane="best" from="687182914#2" to="-23275131#0"/>
    <trip id="bus187" type="bus_bus" depart="380.20" departLane="best" from="23471026#1" to="159698915#0"/>
    <trip id="bus188" type="bus_bus" depart="382.23" departLane="best" from="-8026683#5" to="-262922769"/>
    <trip id="bus189" type="bus_bus" depart="384.27" departLane="best" departSpeed="max" from="10424183" to="4807746#5"/>
    <trip id="bus190" type="bus_bus" depart="386.30" departLane="best" from="314882256" to="23725458#4"/>
    <trip id="bus191" type="bus_bus" depart="388.33" departLane="best" from="-23032792#3" to="220150011#0"/>
    <trip id="bus192" type="bus_bus" depart="390.37" departLane="best" from="23320397#1" to="432904427#5"/>
    <trip id="bus193" type="bus_bus" depart="392.40" departLane="best" from="366030056#1" to="286421142"/>
    <trip id="bus194" type="bus_bus" depart="394.43" departLane="best" from="-23528359#0" to="-26733995#1"/>
    <trip id="bus195" type="bus_bus" depart="396.46" departLane="best" from="24621681#1" to="-122124925#3"/>
    <trip id="bus196" type="bus_bus" depart="398.50" departLane="best" from="-26684108#1" to="169097417#1"/>
    <trip id="bus197" type="bus_bus" depart="400.53" departLane="best" from="387212690#3" to="-22910608#3"/>
    <trip id="bus198" type="bus_bus" depart="402.56" departLane="best" from="560583335#0" to="-23528209#0"/>
    <trip id="bus199" type="bus_bus" depart="404.60" departLane="best" from="-24509652#3" to="25973409#0"/>
    <trip id="bus200" type="bus_bus" depart="406.63" departLane="best" from="121495762" to="-290577629#1"/>
    <trip id="bus201" type="bus_bus" depart="408.66" departLane="best" from="-23471056#2" to="-105914659#1"/>
    <trip id="bus202" type="bus_bus" depart="410.70" departLane="best" from="-26683925#1" to="30998712#1"/>
    <trip id="bus203" type="bus_bus" depart="412.73" departLane="best" from="-23163780#1" to="10492736"/>
    <trip id="bus204" type="bus_bus" depart="414.76" departLane="best" from="-23528284#15" to="758088378#1"/>
    <trip id="bus205" type="bus_bus" depart="416.80" departLane="best" from="537710741#3" to="-17097227"/>
    <trip id="bus206" type="bus_bus" depart="418.83" departLane="best" from="-269782617#5" to="390062310"/>
    <trip id="bus207" type="bus_bus" depart="420.86" departLane="best" departSpeed="max" from="-9054585#3" to="366030054#3"/>
    <trip id="bus208" type="bus_bus" depart="422.90" departLane="best" from="-23528284#1" to="-911891325"/>
    <trip id="bus209" type="bus_bus" depart="424.93" departLane="best" from="23163759#3" to="692610317#2"/>
    <trip id="bus212" type="bus_bus" depart="431.03" departLane="best" from="-380001159" to="23094825"/>
    <trip id="bus213" type="bus_bus" depart="433.06" departLane="best" from="448036757#0" to="281956697"/>
    <trip id="bus214" type="bus_bus" depart="435.09" departLane="best" from="269782614#1" to="23528284#12"/>
    <trip id="bus215" type="bus_bus" depart="437.13" departLane="best" from="-280092621#1" to="22910598#1"/>
    <trip id="bus216" type="bus_bus" depart="439.16" departLane="best" from="-22946801#4" to="-378237365#0"/>
    <trip id="bus217" type="bus_bus" depart="441.19" departLane="best" from="-29214740#0" to="-400416447#0"/>
    <trip id="bus218" type="bus_bus" depart="443.23" departLane="best" from="181648027#1" to="23439929#2"/>
    <trip id="bus219" type="bus_bus" depart="445.26" departLane="best" departSpeed="max" from="-26249186#1" to="-25973386#0"/>
    <trip id="bus220" type="bus_bus" depart="447.29" departLane="best" departSpeed="max" from="25213724" to="202555475#6"/>
    <trip id="bus221" type="bus_bus" depart="449.33" departLane="best" from="537710741#4" to="23093001"/>
    <trip id="bus222" type="bus_bus" depart="451.36" departLane="best" departSpeed="max" from="-560583353#2" to="-25973410#1"/>
    <trip id="bus223" type="bus_bus" depart="453.39" departLane="best" departSpeed="max" from="-580616776" to="4807766"/>
    <trip id="bus224" type="bus_bus" depart="455.43" departLane="best" from="23059801" to="25973406#1"/>
    <trip id="bus225" type="bus_bus" depart="457.46" departLane="best" from="-387401267#8" to="303259049"/>
    <trip id="bus226" type="bus_bus" depart="459.49" departLane="best" from="448036752#1" to="10698330#0"/>
    <trip id="bus227" type="bus_bus" depart="461.53" departLane="best" from="399038513#16" to="-290577629#1"/>
    <trip id="bus228" type="bus_bus" depart="463.56" departLane="best" from="387401253#1" to="694012906#1"/>
    <trip id="bus229" type="bus_bus" depart="465.59" departLane="best" departSpeed="max" from="-57852607#3" to="282513344#0"/>
    <trip id="bus230" type="bus_bus" depart="467.62" departLane="best" from="185953704#4" to="-23320555#1"/>
    <trip id="bus231" type="bus_bus" depart="469.66" departLane="best" from="258841359#5" to="-26632895#1"/>
    <trip id="bus232" type="bus_bus" depart="471.69" departLane="best" from="78043860#5" to="135078202#0"/>
    <trip id="bus233" type="bus_bus" depart="473.72" departLane="best" from="-387212695#0" to="-25497534#1"/>
    <trip id="bus235" type="bus_bus" depart="477.79" departLane="best" from="-1023926180#1" to="-23320404#9"/>
    <trip id="bus237" type="bus_bus" depart="481.86" departLane="best" departSpeed="max" from="-135078204#5" to="23528359#0"/>
    <trip id="bus238" type="bus_bus" depart="483.89" departLane="best" from="-23313215#0" to="158355467#1"/>
    <trip id="bus239" type="bus_bus" depart="485.92" departLane="best" from="-17096022" to="-613399394"/>
    <trip id="bus240" type="bus_bus" depart="487.96" departLane="best" departSpeed="max" from="-255969099" to="-412792789#5"/>
    <trip id="bus241" type="bus_bus" depart="489.99" departLane="best" from="-273990571#2" to="-613399395"/>
    <trip id="bus242" type="bus_bus" depart="492.02" departLane="best" from="-26684342#1" to="386832702"/>
    <trip id="bus243" type="bus_bus" depart="494.06" departLane="best" from="273990571#0" to="-23032792#3"/>
    <trip id="bus244" type="bus_bus" depart="496.09" departLane="best" from="-12099346#2" to="23032884#4"/>
    <trip id="bus245" type="bus_bus" depart="498.12" departLane="best" from="-990451065" to="-474485740"/>
    <trip id="bus248" type="bus_bus" depart="504.22" departLane="best" from="687182914#0" to="-25752843#2"/>
    <trip id="bus249" type="bus_bus" depart="506.25" departLane="best" departSpeed="max" from="-23275124#1" to="-25073037"/>
    <trip id="bus250" type="bus_bus" depart="508.29" departLane="best" departSpeed="max" from="22793652#0" to="26614529#2"/>
    <trip id="bus251" type="bus_bus" depart="510.32" departLane="best" departSpeed="max" from="24666917" to="306683410#4"/>
    <trip id="bus252" type="bus_bus" depart="512.35" departLane="best" from="23528207#3" to="23320645"/>
    <trip id="bus253" type="bus_bus" depart="514.39" departLane="best" from="266224736" to="-23275131#3"/>
    <trip id="bus254" type="bus_bus" depart="516.42" departLane="best" departSpeed="max" from="36774581" to="8026679#0"/>
    <trip id="bus255" type="bus_bus" depart="518.45" departLane="best" from="23163787#1" to="23528364#3"/>
    <trip id="bus256" type="bus_bus" depart="520.49" departLane="best" from="-70531942#4" to="881678625#3"/>
    <trip id="bus257" type="bus_bus" depart="522.52" departLane="best" from="-25415556#2" to="-22946802#4"/>
    <trip id="bus258" type="bus_bus" depart="524.55" departLane="best" from="-23151405#0" to="-31133704#4"/>
    <trip id="bus259" type="bus_bus" depart="526.59" departLane="best" departSpeed="max" from="387212710#0" to="-23320434#1"/>
    <trip id="bus260" type="bus_bus" depart="528.62" departLane="best" departSpeed="max" from="-23196346" to="9054584#3"/>
    <trip id="bus261" type="bus_bus" depart="530.65" departLane="best" from="29701032#1" to="-462327390"/>
    <trip id="bus262" type="bus_bus" depart="532.69" departLane="best" from="-675674219" to="-552812219"/>
    <trip id="bus263" type="bus_bus" depart="534.72" departLane="best" from="-146911733" to="448036755#1"/>
    <trip id="bus264" type="bus_bus" depart="536.75" departLane="best" from="387212690#2" to="384338153#0"/>
    <trip id="bus265" type="bus_bus" depart="538.79" departLane="best" from="23163777#0" to="-785623013#0"/>
    <trip id="bus266" type="bus_bus" depart="540.82" departLane="best" from="23320404#4" to="-386500263"/>
    <trip id="bus267" type="bus_bus" depart="542.85" departLane="best" from="25213867#2" to="1164287131#0"/>
    <trip id="bus268" type="bus_bus" depart="544.88" departLane="best" from="261543529" to="8026679#4"/>