<?xml version="1.0" encoding="UTF-8"?>
<!-- generated on 2023-05-09 11:38:13 by Eclipse SUMO netedit Version 1.16.0
-->
<routes xmlns:xsi="http://www.w3.org/2001/XMLSchema-instance" xsi:noNamespaceSchemaLocation="http://sumo.dlr.de/xsd/routes_file.xsd">
    <!-- Vehicles, persons and containers (sorted by depart) -->
    <vType id="car" vClass="passenger"/>
    <vType id="bic" vClass="bicycle"/>
    <vType id="mot" vClass="motorcycle"/>
     <person id="Alexander" depart="0.00">
        <personTrip from="26734306#2" to="-105914659#1" lines="ANY" vTypes="car"/>
        <stop duration="600"  actType="singing"/>
        <personTrip from="-105914659#1" to="26734306#2" lines="ANY" vTypes="car"/>
    </person>
    <person id="Anna" depart="1.00">
        <personTrip from="448036755#0" to="-105914659#1" lines="ANY" vTypes="mot"/>
        <stop duration="600"  actType="singing"/>
        <personTrip from="-105914659#1" to="-17096975#1" lines="ANY" vTypes="mot"/>
        <stop duration="100"  actType="singing"/>
        <personTrip from="-17096975#1" to="448036755#0" lines="ANY" modes="public"/>
    </person>
    <person id="Thomas" depart="2.00">
        <personTrip from="-692537992" to="-105914659#1" lines="ANY" vTypes="car"/>
        <stop duration="575"  actType="singing"/>
        <personTrip from="-105914659#1" to="-23032837#1" lines="ANY" vTypes="car"/>
        <stop duration="140"  actType="singing"/>
        <personTrip from="-23032837#1" to="-692537992" lines="ANY" modes="public"/>
    </person>
    <person id="Max" depart="3.00">
         <personTrip from="-692537992" to="-105914659#1" lines="ANY" vTypes="car"/>
        <stop duration="620"  actType="singing"/>
        <personTrip from="-105914659#1" to="-23032837#1" lines="ANY" vTypes="car"/>
        <stop duration="120"  actType="singing"/>
        <personTrip from="-23032837#1" to="-692537992" lines="ANY" modes="public"/>
    </person>
    <person id="Sophie" depart="4.00">
        <personTrip from="-42326224#0" to="-105914659#1" lines="ANY" vTypes="car"/>
        <stop duration="549"  actType="singing"/>
        <personTrip from="-105914659#1" to="26734306#2" lines="ANY" vTypes="car"/>
        <stop duration="95"  actType="singing"/>
        <personTrip from="26734306#2" to="-42326224#0" lines="ANY" vTypes="car"/>
    </person>
     <person id="Leon" depart="5.00">
        <personTrip from="-881678625#3" to="-105914659#1" lines="ANY" vTypes="car"/>
        <stop duration="549"  actType="singing"/>
        <personTrip from="-105914659#1" to="-23032837#1" lines="ANY" vTypes="car"/>
        <stop duration="95"  actType="singing"/>
        <personTrip from="26734306#2" to="-881678625#3" lines="ANY" modes="public"/>
    </person>
     <person id="Mia" depart="6.00">
        <personTrip from="-31646611#1" to="-105914659#1" lines="ANY" vTypes="car"/>
        <stop duration="549"  actType="singing"/>
        <personTrip from="-105914659#1" to="26734306#2" lines="ANY" vTypes="car"/>
        <stop duration="95"  actType="singing"/>
        <personTrip from="26734306#2" to="-31646611#1" lines="ANY" vTypes="car"/>
    </person>
     <person id="Luca" depart="7.00">
        <personTrip from="186037699#0" to="-105914659#1" lines="ANY" vTypes="car"/>
        <stop duration="549"  actType="singing"/>
        <personTrip from="-105914659#1" to="186037699#0" lines="ANY" vTypes="car"/>
    </person>
     <person id="Emma" depart="8.00">
        <personTrip from="-387296028#2" to="-105914659#1" lines="ANY" vTypes="bic"/>
        <stop duration="549"  actType="singing"/>
        <personTrip from="-105914659#1" to="-387296028#2" lines="ANY" modes="public"/>
    </person>
     <person id="Paul" depart="9.00">
        <personTrip from="12099342#1" to="-105914659#1" lines="ANY" vTypes="car"/>
        <stop duration="549"  actType="singing"/>
        <personTrip from="-105914659#1" to="-23032837#1" lines="ANY" vTypes="car"/>
        <stop duration="95"  actType="singing"/>
        <personTrip from="-23032837#1" to="12099342#1" lines="ANY" vTypes="car"/>
    </person>
    <person id="Liam" depart="10.00">
        <personTrip from="-167641322#1" to="386831071#1" lines="ANY" vTypes="car"/>
        <stop duration="549"  actType="singing"/>
        <personTrip from="386831071#1" to="896339463#1" lines="ANY" vTypes="car"/>
        <stop duration="95"  actType="singing"/>
        <personTrip from="896339463#1" to="-167641322#1" lines="ANY" vTypes="car"/>
    </person>
    <person id="Ava" depart="11.00">
        <personTrip from="899604572#0" to="386831071#1" lines="ANY" vTypes="car"/>
        <stop duration="549"  actType="singing"/>
        <personTrip from="386831071#1" to="350217704#4" lines="ANY" vTypes="car"/>
        <stop duration="95"  actType="singing"/>
        <personTrip from="350217704#4" to="899604572#0" lines="ANY" vTypes="car"/>
    </person>
    <person id="Charlotte" depart="12.00">
        <personTrip from="345736599" to="386831071#1" lines="ANY" vTypes="car"/>
        <stop duration="549"  actType="singing"/>
        <personTrip from="386831071#1" to="-23032786#1" lines="ANY" vTypes="car"/>
        <stop duration="95"  actType="singing"/>
        <personTrip from="-23032786#1" to="345736599" lines="ANY" vTypes="car"/>
    </person>
    <person id="Amelia" depart="13.00">
        <personTrip from="-378237359#2" to="386831071#1" lines="ANY" vTypes="car"/>
        <stop duration="549"  actType="singing"/>
        <personTrip from="386831071#1" to="135078205" lines="ANY" vTypes="car"/>
        <stop duration="95"  actType="singing"/>
        <personTrip from="135078205" to="-378237359#2" lines="ANY" vTypes="car"/>
    </person>
    <person id="Mia" depart="14.00">
        <personTrip from="173309324#1" to="386831071#1" lines="ANY" vTypes="car"/>
        <stop duration="549"  actType="singing"/>
        <personTrip from="386831071#1" to="-23275131#3" lines="ANY" vTypes="car"/>
        <stop duration="95"  actType="singing"/>
        <personTrip from="-23275131#3" to="173309324#1" lines="ANY" vTypes="car"/>
    </person>
    <person id="Harper" depart="15.00">
        <personTrip from="436137030" to="386831071#1" lines="ANY" vTypes="car"/>
        <stop duration="549"  actType="singing"/>
        <personTrip from="386831071#1" to="-387212710#0" lines="ANY" vTypes="car"/>
        <stop duration="95"  actType="singing"/>
        <personTrip from="-387212710#0" to="436137030" lines="ANY" vTypes="car"/>
    </person>
    <person id="Evelyn" depart="16.00">
        <personTrip from="-717160903#0" to="386831071#1" lines="ANY" vTypes="car"/>
        <stop duration="549"  actType="singing"/>
        <personTrip from="386831071#1" to="-1169441386" lines="ANY" vTypes="car"/>
        <stop duration="95"  actType="singing"/>
        <personTrip from="-1169441386" to="-717160903#0" lines="ANY" vTypes="car"/>
    </person>
    <person id="Abigail" depart="17.00">
        <personTrip from="-47110442#1" to="386831071#1" lines="ANY" vTypes="car"/>
        <stop duration="549"  actType="singing"/>
        <personTrip from="386831071#1" to="25973409#1" lines="ANY" vTypes="car"/>
        <stop duration="95"  actType="singing"/>
        <personTrip from="25973409#1" to="-47110442#1" lines="ANY" vTypes="car"/>
    </person>
    <person id="Elizabeth" depart="18.00">
        <personTrip from="-24782849#0" to="386831071#1" lines="ANY" vTypes="car"/>
        <stop duration="549"  actType="singing"/>
        <personTrip from="386831071#1" to="243261567" lines="ANY" vTypes="car"/>
        <stop duration="95"  actType="singing"/>
        <personTrip from="243261567" to="-24782849#0" lines="ANY" vTypes="car"/>
    </person>
    <person id="Avery" depart="19.00">
        <personTrip from="-4811294" to="386831071#1" lines="ANY" vTypes="car"/>
        <stop duration="549"  actType="singing"/>
        <personTrip from="386831071#1" to="-37181837#4" lines="ANY" vTypes="car"/>
        <stop duration="95"  actType="singing"/>
        <personTrip from="-37181837#4" to="-4811294" lines="ANY" vTypes="car"/>
    </person>
    <person id="Scarlett" depart="20.00">
        <personTrip from="23471091#1" to="386831071#1" lines="ANY" vTypes="car"/>
        <stop duration="549"  actType="singing"/>
        <personTrip from="386831071#1" to="24508745#7" lines="ANY" vTypes="car"/>
        <stop duration="95"  actType="singing"/>
        <personTrip from="24508745#7" to="23471091#1" lines="ANY" vTypes="car"/>
    </person>
    <person id="Grace" depart="21.00">
        <personTrip from="390216942" to="386831071#1" lines="ANY" vTypes="car"/>
        <stop duration="549"  actType="singing"/>
        <personTrip from="386831071#1" to="243261565" lines="ANY" vTypes="car"/>
        <stop duration="95"  actType="singing"/>
        <personTrip from="243261565" to="390216942" lines="ANY" vTypes="car"/>
    </person>
    <person id="Chloe" depart="22.00">
        <personTrip from="25973412#1" to="386831071#1" lines="ANY" vTypes="car"/>
        <stop duration="549"  actType="singing"/>
        <personTrip from="386831071#1" to="-580616774#1" lines="ANY" vTypes="car"/>
        <stop duration="95"  actType="singing"/>
        <personTrip from="-580616774#1" to="25973412#1" lines="ANY" vTypes="car"/>
    </person>
    <person id="Victoria" depart="23.00">
        <personTrip from="23724228#3" to="386831071#1" lines="ANY" vTypes="car"/>
        <stop duration="549"  actType="singing"/>
        <personTrip from="386831071#1" to="-26614713" lines="ANY" vTypes="car"/>
        <stop duration="95"  actType="singing"/>
        <personTrip from="-26614713" to="23724228#3" lines="ANY" vTypes="car"/>
    </person>
    <person id="Riley" depart="24.00">
        <personTrip from="-448974989" to="386831071#1" lines="ANY" vTypes="car"/>
        <stop duration="549"  actType="singing"/>
        <personTrip from="386831071#1" to="-17096022" lines="ANY" vTypes="car"/>
        <stop duration="95"  actType="singing"/>
        <personTrip from="-17096022" to="-448974989" lines="ANY" vTypes="car"/>
    </person>
    <person id="Jonas" depart="25.00">
        <personTrip from="-386831074" to="-386832703#1" lines="ANY" vTypes="bic"/>
        <stop duration="592"  actType="singing"/>
        <personTrip from="-386832703#1" to="-31626938#1" lines="ANY" vTypes="bic"/>
        <stop duration="95"  actType="singing"/>
        <personTrip from="-31626938#1" to="-386831074" lines="ANY" vTypes="bic"/>
    </person>
    <person id="Lena" depart="11.00">
        <personTrip from="158513383#1" to="-386832703#1" lines="ANY" vTypes="bic"/>
        <stop duration="592"  actType="singing"/>
        <personTrip from="-386832703#1" to="-31626938#1" lines="ANY" vTypes="bic"/>
        <stop duration="95"  actType="singing"/>
        <personTrip from="-31626938#1" to="158513383#1" lines="ANY" vTypes="bic"/>
    </person>
    <person id="Noah" depart="12.00">
        <personTrip from="-23119545" to="-386832703#1" lines="ANY" modes="public"/>
        <stop duration="592"  actType="singing"/>
        <personTrip from="-386832703#1" to="-23119545" lines="ANY" modes="public"/>
    </person>
    <person id="Hannah" depart="13.00">
        <personTrip from="-37721058#1" to="-386832703#1" lines="ANY" vTypes="mot"/>
        <stop duration="592"  actType="singing"/>
        <personTrip from="-386832703#1" to="-31626938#1" lines="ANY" vTypes="mot"/>
        <stop duration="95"  actType="singing"/>
        <personTrip from="-31626938#1" to="-37721058#1" lines="ANY" vTypes="mot"/>
    </person>
    <person id="Emilia" depart="14.00">
        <personTrip from="-474485750#1" to="-386832703#1" lines="ANY" vTypes="bic"/>
        <stop duration="592"  actType="singing"/>
        <personTrip from="-386832703#1" to="-31626938#1" lines="ANY" vTypes="bic"/>
        <stop duration="95"  actType="singing"/>
        <personTrip from="-31626938#1" to="-474485750#1" lines="ANY" vTypes="bic"/>
    </person>
    <person id="Ben" depart="15.00">
        <personTrip from="8038822" to="-386832703#1" lines="ANY" modes="public"/>
        <stop duration="592"  actType="singing"/>
        <personTrip from="-386832703#1" to="-31626938#1" lines="ANY" modes="public"/>
        <stop duration="95"  actType="singing"/>
        <personTrip from="-31626938#1" to="8038822" lines="ANY" modes="public"/>
    </person>
    <person id="Marie" depart="16.00">
        <personTrip from="-386831074" to="-386832703#1" lines="ANY" modes="public"/>
        <stop duration="592"  actType="singing"/>
        <personTrip from="-386832703#1" to="-31626938#1" lines="ANY" modes="public"/>
        <stop duration="95"  actType="singing"/>
        <personTrip from="-31626938#1" to="-386831074" lines="ANY" modes="public"/>
    </person>
    <person id="Felix" depart="17.00">
        <personTrip from="462941119#2" to="-386832703#1" lines="ANY" vTypes="bic"/>
        <stop duration="592"  actType="singing"/>
        <personTrip from="-386832703#1" to="-31626938#1" lines="ANY" vTypes="bic"/>
        <stop duration="95"  actType="singing"/>
        <personTrip from="-31626938#1" to="462941119#2" lines="ANY" modes="public"/>
    </person>
    <person id="Laura" depart="18.00">
        <personTrip from="26249175" to="-386832703#1" lines="ANY" modes="public"/>
        <stop duration="592"  actType="singing"/>
        <personTrip from="-386832703#1" to="-31626938#1" lines="ANY" modes="public"/>
        <stop duration="95"  actType="singing"/>
        <personTrip from="-31626938#1" to="26249175" lines="ANY" vTypes="bic"/>
    </person>
    <person id="Matvii" depart="19.00">
        <personTrip from="32197056#2" to="-386832703#1" lines="ANY" vTypes="car"/>
        <stop duration="592"  actType="singing"/>
        <personTrip from="-386832703#1" to="-31626938#1" lines="ANY" vTypes="car"/>
        <stop duration="95"  actType="singing"/>
        <personTrip from="-31626938#1" to="32197056#2" lines="ANY" vTypes="car"/>
    </person>
    <person id="Hugo" depart="20.00">
        <personTrip from="176129773" to="87687105" lines="ANY" modes="public"/>
        <stop duration="592"  actType="singing"/>
        <personTrip from="87687105" to="-30010690#2" lines="ANY" modes="public"/>
        <stop duration="95"  actType="singing"/>
        <personTrip from="-30010690#2" to="176129773" lines="ANY" vTypes="bic"/>
    </person>
     <person id="Stefan" depart="21.00">
        <personTrip from="-36779459#1" to="87687105" lines="ANY" vTypes="car"/>
        <stop duration="592"  actType="singing"/>
        <personTrip from="87687105" to="-36779459#1" lines="ANY" vTypes="car"/>
    </person>
     <person id="Maria" depart="22.00">
        <personTrip from="-44459773#1" to="87687105" lines="ANY" vTypes="bic"/>
        <stop duration="592"  actType="singing"/>
        <personTrip from="87687105" to="4807780#2" lines="ANY" modes="public"/>
        <stop duration="95"  actType="singing"/>
        <personTrip from="4807780#2" to="-44459773#1" lines="ANY" vTypes="bic"/>
    </person>
     <person id="Giorgio" depart="23.00">
       <personTrip from="-436153519" to="87687105" lines="ANY" vTypes="bic"/>
        <stop duration="592"  actType="singing"/>
        <personTrip from="87687105" to="4807780#2" lines="ANY" modes="public"/>
        <stop duration="95"  actType="singing"/>
        <personTrip from="4807780#2" to="-436153519" lines="ANY" vTypes="bic"/>
    </person>
     <person id="Olivia" depart="24.00">
        <personTrip from="23463893#1" to="87687105" lines="ANY" modes="public"/>
        <stop duration="592"  actType="singing"/>
        <personTrip from="87687105" to="4807780#2" lines="ANY" modes="public"/>
        <stop duration="95"  actType="singing"/>
        <personTrip from="4807780#2" to="23463893#1" lines="ANY" vTypes="car"/>
    </person>
     <person id="Isabella" depart="25.00">
        <personTrip from="-53564619#0" to="87687105" lines="ANY" modes="public"/>
        <stop duration="592"  actType="singing"/>
        <personTrip from="87687105" to="4807780#2" lines="ANY" modes="public"/>
        <stop duration="95"  actType="singing"/>
        <personTrip from="4807780#2" to="-53564619#0" lines="ANY" vTypes="mot"/>
    </person>
     <person id="Andrii" depart="26.00">
        <personTrip from="273169649#0" to="87687105" lines="ANY" modes="public"/>
        <stop duration="592"  actType="singing"/>
        <personTrip from="87687105" to="4807780#2" lines="ANY" modes="public"/>
        <stop duration="95"  actType="singing"/>
        <personTrip from="4807780#2" to="273169649#0" lines="ANY" vTypes="car"/>
    </person>
     <person id="Elena" depart="27.00">
        <personTrip from="-269782624#0" to="87687105" lines="ANY" vTypes="car"/>
        <stop duration="592"  actType="singing"/>
        <personTrip from="87687105" to="4807780#2" lines="ANY" modes="public"/>
        <stop duration="95"  actType="singing"/>
        <personTrip from="4807780#2" to="-269782624#0" lines="ANY" vTypes="bic"/>
    </person>
     <person id="Matej" depart="29.00">
        <personTrip from="-22793821#1" to="87687105" lines="ANY" vTypes="car"/>
        <stop duration="592"  actType="singing"/>
        <personTrip from="87687105" to="4807780#2" lines="ANY" modes="public"/>
        <stop duration="95"  actType="singing"/>
        <personTrip from="4807780#2" to="-22793821#1" lines="ANY" vTypes="car"/>
    </person>
    <person id="Katrin" depart="29.00">
        <personTrip from="1026932448" to="87687105" lines="ANY" vTypes="bic"/>
        <stop duration="592"  actType="singing"/>
        <personTrip from="87687105" to="4807780#2" lines="ANY" modes="public"/>
        <stop duration="95"  actType="singing"/>
        <personTrip from="4807780#2" to="1026932448" lines="ANY" modes="public"/>
    </person>
    <person id="Leopold" depart="30.00">
        <personTrip from="386851192#1" to="-23196349" lines="ANY" modes="public"/>
        <stop duration="592"  actType="singing"/>
        <personTrip from="-23196349" to="386851192#1" lines="ANY" modes="public"/>
    </person>
    <person id="Marta" depart="31.00">
        <personTrip from="386851192#1" to="-23196349" lines="ANY" modes="public"/>
        <stop duration="592"  actType="singing"/>
        <personTrip from="-23196349" to="386851192#1" lines="ANY" modes="public"/>
    </person>
    <person id="Ingrid" depart="32.00">
        <personTrip from="23316367" to="-23196349" lines="ANY" vTypes="mot"/>
        <stop duration="592"  actType="singing"/>
        <personTrip from="-23196349" to="23316367" lines="ANY" vTypes="mot"/>
    </person>
    <person id="James" depart="33.00">
        <personTrip from="202499351#0" to="-23196349" lines="ANY" vTypes="mot"/>
        <stop duration="592"  actType="singing"/>
        <personTrip from="-23196349" to="202499351#0" lines="ANY" vTypes="mot"/>
    </person>
    <person id="Sofia" depart="34.00">
        <personTrip from="8026684#0" to="-23196349" lines="ANY" modes="public"/>
        <stop duration="592"  actType="singing"/>
        <personTrip from="-23196349" to="8026684#0" lines="ANY" modes="public"/>
    </person>
    <person id="Tobias" depart="35.00">
        <personTrip from="281915930#1" to="-23196349" lines="ANY" modes="public"/>
        <stop duration="592"  actType="singing"/>
        <personTrip from="-23196349" to="281915930#1" lines="ANY" modes="public"/>
    </person>
    <person id="John" depart="36.00">
        <personTrip from="387155266" to="-23196349" lines="ANY" vTypes="bic"/>
        <stop duration="592"  actType="singing"/>
        <personTrip from="-23196349" to="387155266" lines="ANY" vTypes="bic"/>
    </person>
    <person id="Emily" depart="37.00">
        <personTrip from="-412792763" to="-23196349" lines="ANY" vTypes="bic"/>
        <stop duration="592"  actType="singing"/>
        <personTrip from="-23196349" to="-412792763" lines="ANY" vTypes="bic"/>
    </person>
    <person id="Michael" depart="38.00">
        <personTrip from="441972347#3" to="-23196349" lines="ANY" vTypes="car"/>
        <stop duration="592"  actType="singing"/>
        <personTrip from="-23196349" to="441972347#3" lines="ANY" vTypes="car"/>
    </person>
    <person id="Sarah" depart="39.00">
        <personTrip from="561591790#0" to="-23196349" lines="ANY" vTypes="car"/>
        <stop duration="592"  actType="singing"/>
        <personTrip from="-23196349" to="561591790#0" lines="ANY" vTypes="car"/>
    </person>
</routes>
