<?xml version="1.0" encoding="UTF-8"?>

<!-- generated on 2023-05-18 14:38:00 by Eclipse SUMO netconvert Version 1.16.0
<configuration xmlns:xsi="http://www.w3.org/2001/XMLSchema-instance" xsi:noNamespaceSchemaLocation="http://sumo.dlr.de/xsd/netconvertConfiguration.xsd">

    <input>
        <type-files value="${SUMO_HOME}/data/typemap/osmNetconvert.typ.xml,${SUMO_HOME}/data/typemap/osmNetconvertUrbanDe.typ.xml,${SUMO_HOME}/data/typemap/osmNetconvertPedestrians.typ.xml,${SUMO_HOME}/data/typemap/osmNetconvertBicycle.typ.xml,${SUMO_HOME}/data/typemap/osmNetconvertAerialway.typ.xml"/>
        <osm-files value="osm_bbox.osm.xml.gz"/>
    </input>

    <output>
        <output-file value="osm.net.xml.gz"/>
        <output.street-names value="true"/>
        <output.original-names value="true"/>
        <ptstop-output value="osm_stops.add.xml"/>
        <ptline-output value="osm_ptlines.xml"/>
    </output>

    <projection>
        <proj.utm value="true"/>
    </projection>

    <processing>
        <geometry.remove value="true"/>
        <roundabouts.guess value="true"/>
    </processing>

    <tls_building>
        <tls.discard-simple value="true"/>
        <tls.join value="true"/>
        <tls.guess-signals value="true"/>
        <tls.default-type value="actuated"/>
    </tls_building>

    <ramp_guessing>
        <ramps.guess value="true"/>
    </ramp_guessing>

    <junctions>
        <junctions.join value="true"/>
        <junctions.corner-detail value="5"/>
    </junctions>

    <pedestrian>
        <crossings.guess value="true"/>
    </pedestrian>

    <railway>
        <railway.topology.repair value="true"/>
    </railway>

    <formats>
        <osm.bike-access value="true"/>
        <osm.sidewalks value="true"/>
    </formats>

</configuration>
-->

<additional xmlns:xsi="http://www.w3.org/2001/XMLSchema-instance" xsi:noNamespaceSchemaLocation="http://sumo.dlr.de/xsd/additional_file.xsd">
    <busStop id="-109597336" name="Brunnen" lane="-560583353#2_1" startPos="0.00" endPos="11.81" friendlyPos="true" lines="110 132"/>
    <busStop id="-1187477995" name="Altbach" lane="-180784454#2_0" startPos="100.50" endPos="300.50" friendlyPos="true"/>
    <busStop id="-1187534664" name="Oberesslingen" lane="-180784454#0_0" startPos="88.46" endPos="288.46" friendlyPos="true">
        <access lane="408015643_0" pos="0.00" length="5.36" friendlyPos="1"/>
        <access lane="408015645_0" pos="3.99" length="8.84" friendlyPos="1"/>
        <access lane="412718967_0" pos="2.53" length="12.04" friendlyPos="1"/>
        <access lane="412718976_0" pos="0.00" length="11.26" friendlyPos="1"/>
        <access lane="694116145_0" pos="2.13" length="9.58" friendlyPos="1"/>
    </busStop>
    <busStop id="-1187534737" name="Oberesslingen" lane="-180784448#1_0" startPos="95.10" endPos="295.10" friendlyPos="true">
        <access lane="407997542#1_0" pos="1.49" length="1.40" friendlyPos="1"/>
        <access lane="412718973#0_0" pos="0.00" length="10.50" friendlyPos="1"/>
        <access lane="694116185_0" pos="1.89" length="7.19" friendlyPos="1"/>
        <access lane="694116186_0" pos="1.33" length="8.91" friendlyPos="1"/>
        <access lane="694116189_0" pos="0.20" length="7.54" friendlyPos="1"/>
    </busStop>
    <busStop id="-1187584519" name="Esslingen (Neckar)" lane="-156199092#0_0" startPos="126.12" endPos="326.12" friendlyPos="true">
        <access lane="303780045_0" pos="0.00" length="17.98" friendlyPos="1"/>
        <access lane="303780047_0" pos="0.00" length="17.02" friendlyPos="1"/>
        <access lane="303780069#0_0" pos="0.00" length="15.54" friendlyPos="1"/>
        <access lane="303780071#0_0" pos="0.54" length="18.57" friendlyPos="1"/>
        <access lane="303780071#1_0" pos="3.69" length="11.08" friendlyPos="1"/>
    </busStop>
    <busStop id="-1187584571" name="Esslingen (Neckar)" lane="-454381994#0_0" startPos="96.28" endPos="296.28" friendlyPos="true">
        <access lane="1035471373_0" pos="36.07" length="24.78" friendlyPos="1"/>
        <access lane="303780041_0" pos="6.47" length="28.07" friendlyPos="1"/>
        <access lane="303780045_0" pos="0.00" length="25.71" friendlyPos="1"/>
        <access lane="303780069#0_0" pos="0.20" length="25.06" friendlyPos="1"/>
        <access lane="303780069#1_0" pos="2.60" length="22.38" friendlyPos="1"/>
    </busStop>
    <busStop id="-1254192526" name="Pliensauturm" lane="-350217704#3_0" startPos="0.00" endPos="15.00" friendlyPos="true" lines="114">
        <access lane="-693946724_0" pos="0.00" length="14.60" friendlyPos="1"/>
        <access lane="-693946725#0_0" pos="0.00" length="14.31" friendlyPos="1"/>
        <access lane="397833659_0" pos="87.74" length="18.86" friendlyPos="1"/>
        <access lane="693946722#1_0" pos="11.38" length="6.73" friendlyPos="1"/>
        <access lane="693946725#0_0" pos="0.20" length="17.07" friendlyPos="1"/>
    </busStop>
    <busStop id="-245017149" name="Oberesslingen Bahnhof (Süd)" lane="-392589607#0_0" startPos="0.00" endPos="15.00" friendlyPos="true" lines="121">
        <access lane="412718957_0" pos="3.63" length="5.14" friendlyPos="1"/>
        <access lane="412718959_0" pos="1.36" length="7.82" friendlyPos="1"/>
        <access lane="412718968_0" pos="0.97" length="7.74" friendlyPos="1"/>
        <access lane="412718970#0_0" pos="0.00" length="9.49" friendlyPos="1"/>
        <access lane="412718971#1_0" pos="0.40" length="7.85" friendlyPos="1"/>
    </busStop>
    <busStop id="-263337116" name="Stuttgart-Obertürkheim" lane="-292876200#1_0" startPos="588.52" endPos="788.52" friendlyPos="true">
        <access lane="-25653594#2_0" pos="0.00" length="255.52" friendlyPos="1"/>
        <access lane="-344566273_0" pos="539.28" length="218.38" friendlyPos="1"/>
        <access lane="25653594#2_0" pos="532.33" length="250.88" friendlyPos="1"/>
        <access lane="344566273_0" pos="75.95" length="221.38" friendlyPos="1"/>
        <access lane="431444821#1_0" pos="530.56" length="180.50" friendlyPos="1"/>
    </busStop>
    <busStop id="-263337125" name="Esslingen-Mettingen" lane="-24304026_0" startPos="126.13" endPos="326.13" friendlyPos="true">
        <access lane="23171654_0" pos="11.45" length="5.33" friendlyPos="1"/>
        <access lane="303756895_0" pos="5.36" length="11.73" friendlyPos="1"/>
        <access lane="303756908#0_0" pos="0.00" length="11.46" friendlyPos="1"/>
        <access lane="393161161_0" pos="0.00" length="10.69" friendlyPos="1"/>
        <access lane="393161162#0_0" pos="0.00" length="5.07" friendlyPos="1"/>
    </busStop>
    <busStop id="-263337141" name="Esslingen (Neckar)" lane="-156199093#0_0" startPos="93.73" endPos="293.73" friendlyPos="true">
        <access lane="303780041_0" pos="6.47" length="17.00" friendlyPos="1"/>
        <access lane="303780045_0" pos="0.00" length="14.68" friendlyPos="1"/>
        <access lane="303780069#0_0" pos="0.00" length="12.57" friendlyPos="1"/>
        <access lane="303780069#1_0" pos="0.00" length="15.41" friendlyPos="1"/>
        <access lane="303780071#1_0" pos="3.69" length="15.23" friendlyPos="1"/>
    </busStop>
    <busStop id="-263337147" name="Oberesslingen" lane="-123444522#4_0" startPos="87.27" endPos="287.27" friendlyPos="true">
        <access lane="407997542#1_0" pos="1.49" length="8.84" friendlyPos="1"/>
        <access lane="408015645_0" pos="0.00" length="8.84" friendlyPos="1"/>
        <access lane="412718973#0_0" pos="0.00" length="2.29" friendlyPos="1"/>
        <access lane="412718973#1_0" pos="0.00" length="9.22" friendlyPos="1"/>
        <access lane="412718976_0" pos="0.20" length="9.73" friendlyPos="1"/>
    </busStop>
    <busStop id="-2648044989" name="Schelztor" lane="-442274138_1" startPos="0.00" endPos="9.50" friendlyPos="true" lines="109"/>
    <busStop id="-2661523902" name="Esslingen (Neckar)" lane="-102848475#0_0" startPos="478.83" endPos="678.83" friendlyPos="true">
        <access lane="303780035_0" pos="0.00" length="10.42" friendlyPos="1"/>
        <access lane="303780042_0" pos="6.66" length="10.74" friendlyPos="1"/>
        <access lane="303780056_0" pos="0.86" length="16.35" friendlyPos="1"/>
        <access lane="303780061#0_0" pos="0.11" length="14.03" friendlyPos="1"/>
        <access lane="303780061#1_0" pos="3.41" length="1.68" friendlyPos="1"/>
    </busStop>
    <busStop id="-280307039" name="Theodor-Heuss-Gymnasium" lane="-394114218#3_1" startPos="0.00" endPos="15.00" friendlyPos="true" lines="132"/>
    <busStop id="-2869007744" name="Keplerstraße" lane="-23999291#0_0" startPos="0.00" endPos="0.20" friendlyPos="true" lines="115">
        <access lane="-282972291#1_0" pos="20.50" length="12.22" friendlyPos="1"/>
        <access lane="282972291#1_0" pos="0.00" length="12.22" friendlyPos="1"/>
        <access lane="449555684#1_0" pos="1.27" length="10.85" friendlyPos="1"/>
        <access lane="449555696#2_0" pos="193.61" length="10.82" friendlyPos="1"/>
        <access lane="449555696#3_0" pos="0.00" length="10.37" friendlyPos="1"/>
    </busStop>
    <busStop id="-3068257006" name="Stuttgart-Obertürkheim" lane="-23163786#3_0" startPos="116.30" endPos="316.30" friendlyPos="true">
        <access lane="-25653594#2_0" pos="0.00" length="272.86" friendlyPos="1"/>
        <access lane="-344566273_0" pos="533.78" length="238.47" friendlyPos="1"/>
        <access lane="25653594#2_0" pos="532.33" length="268.17" friendlyPos="1"/>
        <access lane="344566273_0" pos="81.46" length="241.47" friendlyPos="1"/>
        <access lane="431444821#1_0" pos="530.56" length="201.08" friendlyPos="1"/>
    </busStop>
    <busStop id="-3068257018" name="Stuttgart-Obertürkheim" lane="-48316096#1_0" startPos="123.70" endPos="323.70" friendlyPos="true">
        <access lane="-25653594#2_0" pos="0.00" length="301.82" friendlyPos="1"/>
        <access lane="-344566273_0" pos="528.34" length="269.90" friendlyPos="1"/>
        <access lane="25653594#2_0" pos="532.33" length="297.08" friendlyPos="1"/>
        <access lane="344566273_0" pos="86.89" length="272.90" friendlyPos="1"/>
        <access lane="431444821#1_0" pos="530.56" length="233.20" friendlyPos="1"/>
    </busStop>
    <busStop id="-3068304222" name="Altbach" lane="-123444522#1_0" startPos="207.83" endPos="407.83" friendlyPos="true"/>
    <busStop id="-3081546115" name="Esslingen-Mettingen" lane="-87195276_0" startPos="163.77" endPos="363.77" friendlyPos="true">
        <access lane="-23163783_0" pos="0.00" length="79.57" friendlyPos="1"/>
        <access lane="146908203#0_0" pos="66.97" length="34.79" friendlyPos="1"/>
        <access lane="23163783_0" pos="131.85" length="72.39" friendlyPos="1"/>
        <access lane="303756901_0" pos="14.80" length="77.11" friendlyPos="1"/>
        <access lane="823062063#4_0" pos="46.14" length="52.03" friendlyPos="1"/>
    </busStop>
    <busStop id="-3081546121" name="Esslingen-Mettingen" lane="-85959749#1_0" startPos="143.18" endPos="343.18" friendlyPos="true">
        <access lane="146908203#0_0" pos="63.70" length="20.80" friendlyPos="1"/>
        <access lane="23163783_0" pos="131.85" length="84.03" friendlyPos="1"/>
        <access lane="23220039_0" pos="31.51" length="80.50" friendlyPos="1"/>
        <access lane="303756901_0" pos="14.80" length="73.63" friendlyPos="1"/>
        <access lane="823062063#4_0" pos="47.97" length="38.13" friendlyPos="1"/>
    </busStop>
    <busStop id="-3082151227" name="Esslingen-Zell" lane="-180784454#2_0" startPos="1934.84" endPos="2134.84" friendlyPos="true"/>
    <busStop id="-3082162048" name="Esslingen-Zell" lane="-123444522#2_0" startPos="415.78" endPos="615.78" friendlyPos="true"/>
    <busStop id="-3082162052" name="Esslingen-Zell" lane="-180784448#3_0" startPos="452.72" endPos="652.72" friendlyPos="true"/>
    <busStop id="-3082162066" name="Esslingen-Zell" lane="-248760538#1_0" startPos="417.56" endPos="617.56" friendlyPos="true"/>
    <busStop id="-30911797" name="Oberesslingen" lane="-248760538#3_0" startPos="94.26" endPos="294.26" friendlyPos="true">
        <access lane="407997542#0_0" pos="0.00" length="10.53" friendlyPos="1"/>
        <access lane="407997542#1_0" pos="0.00" length="15.54" friendlyPos="1"/>
        <access lane="694116185_0" pos="1.89" length="14.01" friendlyPos="1"/>
        <access lane="694116186_0" pos="1.33" length="16.80" friendlyPos="1"/>
        <access lane="694116189_0" pos="0.20" length="14.71" friendlyPos="1"/>
    </busStop>
    <busStop id="-3222963807" name="Esslingen-Mettingen" lane="-1086171355_0" startPos="193.06" endPos="393.06" friendlyPos="true">
        <access lane="23171655#2_0" pos="1.15" length="12.35" friendlyPos="1"/>
        <access lane="303756894_0" pos="4.87" length="8.25" friendlyPos="1"/>
        <access lane="303756902_0" pos="0.20" length="8.26" friendlyPos="1"/>
        <access lane="303756905#0_0" pos="2.18" length="12.27" friendlyPos="1"/>
        <access lane="303756905#1_0" pos="1.96" length="3.19" friendlyPos="1"/>
    </busStop>
    <busStop id="-3566577209" name="Esslingen (N) ZOB" lane="-392441930_0" startPos="32.82" endPos="47.82" friendlyPos="true" lines="122 105 110"/>
    <busStop id="-3566577210" name="Esslingen (N) ZOB" lane="-386500268#0_0" startPos="0.00" endPos="15.00" friendlyPos="true" lines="108"/>
    <busStop id="-3872480830" name="Mettingen Bahnhof (Trollingerweg)" lane="-383983728_1" startPos="6.35" endPos="21.35" friendlyPos="true" lines="115"/>
    <busStop id="-3872841443" name="Pliensauturm" lane="-350217704#2_0" startPos="45.44" endPos="60.44" friendlyPos="true" lines="131 140 130 N22">
        <access lane="-4807836#0_0" pos="0.00" length="18.92" friendlyPos="1"/>
        <access lane="23205593#0_0" pos="98.99" length="23.47" friendlyPos="1"/>
        <access lane="26738309_0" pos="16.56" length="29.93" friendlyPos="1"/>
        <access lane="4807836#0_0" pos="8.92" length="17.10" friendlyPos="1"/>
        <access lane="693946722#0_0" pos="6.32" length="6.86" friendlyPos="1"/>
    </busStop>
    <busStop id="-3872841444" name="Schelztor" lane="-386832703#0_1" startPos="0.00" endPos="0.20" friendlyPos="true" lines="108 122 105 110"/>
    <busStop id="-3883265541" name="Schwertmühle" lane="-27531049#1_0" startPos="11.29" endPos="26.29" friendlyPos="true" lines="121">
        <access lane="-226115169_0" pos="0.00" length="38.52" friendlyPos="1"/>
        <access lane="-23999287_0" pos="0.87" length="47.82" friendlyPos="1"/>
        <access lane="-360393482_0" pos="0.00" length="44.68" friendlyPos="1"/>
        <access lane="226115169_0" pos="4.64" length="33.92" friendlyPos="1"/>
        <access lane="360393482_0" pos="40.41" length="41.09" friendlyPos="1"/>
    </busStop>
    <busStop id="-3904477592" name="Sulzgries Zentrum" lane="-24508781#1_1" startPos="0.00" endPos="15.00" friendlyPos="true" lines="109 132"/>
    <busStop id="-3904767704" name="Herrenwiesenweg" lane="-387155257#0_0" startPos="0.00" endPos="15.00" friendlyPos="true" lines="111">
        <access lane="-687589728_0" pos="0.00" length="32.78" friendlyPos="1"/>
        <access lane="23471056#4_0" pos="73.43" length="6.30" friendlyPos="1"/>
        <access lane="387155257#1_0" pos="0.00" length="33.90" friendlyPos="1"/>
        <access lane="387155257#2_0" pos="0.00" length="66.17" friendlyPos="1"/>
        <access lane="687589728_0" pos="26.72" length="32.01" friendlyPos="1"/>
    </busStop>
    <busStop id="-3968318269" name="Parksiedlung Parkstraße" lane="-158355468#1_1" startPos="0.22" endPos="15.22" friendlyPos="true" lines="131 130"/>
    <busStop id="-6262815029" name="Parksiedlung Robert-Koch-Straße" lane="-231875715#2_1" startPos="29.86" endPos="44.86" friendlyPos="true" lines="122"/>
    <busStop id="-6501810816" name="Esslingen (N) ZOB" lane="-386500268#0_0" startPos="29.65" endPos="44.65" friendlyPos="true" lines="109"/>
    <busStop id="-6515317538" name="Pliensauturm" lane="-350217704#3_0" startPos="1.39" endPos="16.39" friendlyPos="true" lines="111 112 113">
        <access lane="-693946724_0" pos="0.00" length="18.92" friendlyPos="1"/>
        <access lane="-693946725#0_0" pos="0.00" length="19.15" friendlyPos="1"/>
        <access lane="-957481220#1_0" pos="97.07" length="20.99" friendlyPos="1"/>
        <access lane="693946722#1_0" pos="7.58" length="6.79" friendlyPos="1"/>
        <access lane="693946725#0_0" pos="0.20" length="22.06" friendlyPos="1"/>
    </busStop>
    <busStop id="-6515317595" name="Pliensauturm" lane="-350217704#2_0" startPos="0.00" endPos="15.00" friendlyPos="true" lines="114 106 104">
        <access lane="-693946724_0" pos="1.40" length="45.82" friendlyPos="1"/>
        <access lane="-957481220#1_0" pos="97.07" length="17.27" friendlyPos="1"/>
        <access lane="693946722#0_0" pos="58.17" length="6.94" friendlyPos="1"/>
        <access lane="693946722#1_0" pos="0.00" length="19.06" friendlyPos="1"/>
        <access lane="957481220#1_0" pos="0.00" length="13.42" friendlyPos="1"/>
    </busStop>
    <busStop id="-89023451" name="Oberer Eisbergweg" lane="-139468853_1" startPos="14.68" endPos="29.68" friendlyPos="true" lines="119 120"/>
    <busStop id="1037937586" name="Panorama-Klinik" lane="169127813#4_0" startPos="90.63" endPos="105.63" friendlyPos="true">
        <access lane="449240479#1_0" pos="99.27" length="139.62" friendlyPos="1"/>
        <access lane="449241019_0" pos="6.25" length="150.12" friendlyPos="1"/>
        <access lane="449241023#1_0" pos="0.20" length="150.90" friendlyPos="1"/>
        <access lane="449241026_0" pos="97.77" length="5.71" friendlyPos="1"/>
        <access lane="449241028#0_0" pos="98.74" length="4.89" friendlyPos="1"/>
    </busStop>
    <busStop id="10814468128" name="Gartenstadt" lane="37177743#1_0" startPos="5.73" endPos="20.73" friendlyPos="true">
        <access lane="1162631181#1_0" pos="1.62" length="9.19" friendlyPos="1"/>
        <access lane="1162631185#0_0" pos="0.62" length="8.64" friendlyPos="1"/>
        <access lane="1162631185#1_0" pos="0.00" length="8.62" friendlyPos="1"/>
        <access lane="1162631186#0_0" pos="0.00" length="11.74" friendlyPos="1"/>
        <access lane="283022113#4_0" pos="0.00" length="11.70" friendlyPos="1"/>
    </busStop>
    <busStop id="109597051" name="Bärenwiesen" lane="34424782#2_1" startPos="38.97" endPos="53.97" friendlyPos="true"/>
    <busStop id="1104997093" name="Katharinenstaffel" lane="8812305#1_0" startPos="0.00" endPos="0.20" friendlyPos="true">
        <access lane="449240479#0_0" pos="0.00" length="13.11" friendlyPos="1"/>
        <access lane="449240482#4_0" pos="0.20" length="13.82" friendlyPos="1"/>
        <access lane="449240482#5_0" pos="0.00" length="14.88" friendlyPos="1"/>
        <access lane="449240483#0_0" pos="0.20" length="8.94" friendlyPos="1"/>
        <access lane="449240483#1_0" pos="0.00" length="11.92" friendlyPos="1"/>
    </busStop>
    <busStop id="1187477995" name="Altbach" lane="180784454#2_0" startPos="2102.56" endPos="2302.56" friendlyPos="true" lines="S1"/>
    <busStop id="1187534664" name="Oberesslingen" lane="292876199#4_0" startPos="1319.25" endPos="1519.25" friendlyPos="true" lines="S1">
        <access lane="408015643_0" pos="0.00" length="5.36" friendlyPos="1"/>
        <access lane="408015645_0" pos="3.99" length="8.84" friendlyPos="1"/>
        <access lane="412718967_0" pos="2.53" length="12.04" friendlyPos="1"/>
        <access lane="412718976_0" pos="0.00" length="11.26" friendlyPos="1"/>
        <access lane="694116145_0" pos="2.13" length="9.58" friendlyPos="1"/>
    </busStop>
    <busStop id="1187534737" name="Oberesslingen" lane="180784448#1_0" startPos="896.73" endPos="1096.73" friendlyPos="true">
        <access lane="407997542#1_0" pos="1.49" length="1.40" friendlyPos="1"/>
        <access lane="412718973#0_0" pos="0.00" length="10.50" friendlyPos="1"/>
        <access lane="694116185_0" pos="1.89" length="7.19" friendlyPos="1"/>
        <access lane="694116186_0" pos="1.33" length="8.91" friendlyPos="1"/>
        <access lane="694116189_0" pos="0.20" length="7.54" friendlyPos="1"/>
    </busStop>
    <busStop id="1187584519" name="Esslingen (Neckar)" lane="102807168#2_0" startPos="428.56" endPos="628.56" friendlyPos="true">
        <access lane="303780045_0" pos="0.00" length="17.98" friendlyPos="1"/>
        <access lane="303780047_0" pos="0.00" length="17.02" friendlyPos="1"/>
        <access lane="303780069#0_0" pos="0.00" length="15.54" friendlyPos="1"/>
        <access lane="303780071#0_0" pos="0.54" length="18.57" friendlyPos="1"/>
        <access lane="303780071#1_0" pos="3.69" length="11.08" friendlyPos="1"/>
    </busStop>
    <busStop id="1187584571" name="Esslingen (Neckar)" lane="102848495#4_0" startPos="91.36" endPos="291.36" friendlyPos="true" lines="S1">
        <access lane="1035471373_0" pos="36.07" length="24.78" friendlyPos="1"/>
        <access lane="303780041_0" pos="6.47" length="28.07" friendlyPos="1"/>
        <access lane="303780045_0" pos="0.00" length="25.71" friendlyPos="1"/>
        <access lane="303780069#0_0" pos="0.20" length="25.06" friendlyPos="1"/>
        <access lane="303780069#1_0" pos="2.60" length="22.38" friendlyPos="1"/>
    </busStop>
    <busStop id="1187584623" name="Esslingen (Neckar)" lane="156199090_0" startPos="20.11" endPos="220.11" friendlyPos="true">
        <access lane="303780047_0" pos="0.00" length="17.43" friendlyPos="1"/>
        <access lane="303780061#1_0" pos="3.41" length="21.00" friendlyPos="1"/>
        <access lane="303780063_0" pos="6.61" length="19.57" friendlyPos="1"/>
        <access lane="303780071#0_0" pos="0.00" length="13.86" friendlyPos="1"/>
        <access lane="303780071#1_0" pos="0.00" length="18.18" friendlyPos="1"/>
    </busStop>
    <busStop id="1219607437" name="Charlottenplatz" lane="4807837#2_0" startPos="11.54" endPos="26.54" friendlyPos="true">
        <access lane="-32133766_0" pos="58.32" length="34.62" friendlyPos="1"/>
        <access lane="-38027017_0" pos="0.00" length="52.72" friendlyPos="1"/>
        <access lane="-611781711_0" pos="19.69" length="47.93" friendlyPos="1"/>
        <access lane="32133766_0" pos="0.00" length="39.14" friendlyPos="1"/>
        <access lane="611781711_0" pos="0.00" length="45.54" friendlyPos="1"/>
    </busStop>
    <busStop id="1219607507" name="Merkel&apos;sches Bad" lane="54883018#1_0" startPos="22.28" endPos="37.28" friendlyPos="true">
        <access lane="693946705_0" pos="29.83" length="8.51" friendlyPos="1"/>
        <access lane="693946713#3_0" pos="29.20" length="51.08" friendlyPos="1"/>
        <access lane="693946714#0_0" pos="0.20" length="49.55" friendlyPos="1"/>
        <access lane="693946714#1_0" pos="0.00" length="49.24" friendlyPos="1"/>
        <access lane="693946714#2_0" pos="0.00" length="49.44" friendlyPos="1"/>
    </busStop>
    <busStop id="1219607569" name="Steinhalde" lane="387296014#1_0" startPos="11.90" endPos="26.90" friendlyPos="true">
        <access lane="-86957635#2_0" pos="0.00" length="14.19" friendlyPos="1"/>
        <access lane="696225643#0_0" pos="0.00" length="12.47" friendlyPos="1"/>
        <access lane="696225649#0_0" pos="0.00" length="13.87" friendlyPos="1"/>
        <access lane="696225651#0_0" pos="0.00" length="9.54" friendlyPos="1"/>
        <access lane="86957635#2_0" pos="0.20" length="16.52" friendlyPos="1"/>
    </busStop>
    <busStop id="1219607572" name="Merkel&apos;sches Bad" lane="387401256#1_0" startPos="0.00" endPos="15.00" friendlyPos="true" lines="114">
        <access lane="-22910604#1_0" pos="23.67" length="57.15" friendlyPos="1"/>
        <access lane="-290577631_0" pos="0.00" length="33.99" friendlyPos="1"/>
        <access lane="290577631_0" pos="51.96" length="32.65" friendlyPos="1"/>
        <access lane="693946711#1_0" pos="27.18" length="22.89" friendlyPos="1"/>
        <access lane="694075475#0_0" pos="4.12" length="8.78" friendlyPos="1"/>
    </busStop>
    <busStop id="125392606" name="Panorama-Klinik" lane="169127813#4_0" startPos="295.29" endPos="310.29" friendlyPos="true">
        <access lane="-173830023#0_0" pos="0.00" length="53.62" friendlyPos="1"/>
        <access lane="173830023#0_0" pos="94.80" length="51.42" friendlyPos="1"/>
        <access lane="449241026_0" pos="302.40" length="5.13" friendlyPos="1"/>
        <access lane="449241028#0_0" pos="303.40" length="4.54" friendlyPos="1"/>
        <access lane="449241028#1_0" pos="0.00" length="54.98" friendlyPos="1"/>
    </busStop>
    <busStop id="125392608" name="Burg" lane="537710741#3_1" startPos="36.31" endPos="51.31" friendlyPos="true"/>
    <busStop id="125392611" name="Hohenkreuz" lane="12098782#4_1" startPos="22.39" endPos="37.39" friendlyPos="true"/>
    <busStop id="125392612" name="Wäldenbronn Kreuzung" lane="25214142#0_0" startPos="0.00" endPos="15.00" friendlyPos="true">
        <access lane="-25214142#0_0" pos="68.07" length="12.51" friendlyPos="1"/>
        <access lane="-431767318#1_0" pos="0.00" length="12.49" friendlyPos="1"/>
        <access lane="-431767318#2_0" pos="4.78" length="10.04" friendlyPos="1"/>
        <access lane="431767318#1_0" pos="60.75" length="12.49" friendlyPos="1"/>
        <access lane="431767318#2_0" pos="0.00" length="10.04" friendlyPos="1"/>
    </busStop>
    <busStop id="125392617" name="Wäldenbronn Kreuzung" lane="12099349_1" startPos="25.71" endPos="40.71" friendlyPos="true"/>
    <busStop id="125392619" name="Langer Weg" lane="560583354_1" startPos="2.98" endPos="17.98" friendlyPos="true"/>
    <busStop id="177439259" name="Jusiweg" lane="255241185_0" startPos="0.00" endPos="15.00" friendlyPos="true">
        <access lane="697552582_0" pos="15.05" length="23.81" friendlyPos="1"/>
        <access lane="697552583#0_0" pos="9.20" length="23.39" friendlyPos="1"/>
        <access lane="697552583#1_0" pos="4.60" length="17.83" friendlyPos="1"/>
        <access lane="697552585#1_0" pos="0.20" length="37.92" friendlyPos="1"/>
        <access lane="697552585#2_0" pos="0.00" length="38.69" friendlyPos="1"/>
    </busStop>
    <busStop id="1786518020" name="Wannenrain" lane="4066943#3_1" startPos="65.32" endPos="80.32" friendlyPos="true" lines="103"/>
    <busStop id="1867109237" name="Eichendorffschule" lane="400416445#1_1" startPos="32.53" endPos="47.53" friendlyPos="true"/>
    <busStop id="1911101330" name="Weilstraße" lane="22910600_0" startPos="0.00" endPos="15.00" friendlyPos="true"/>
    <busStop id="1920592400" name="Alte Steige" lane="31133710_0" startPos="292.43" endPos="307.43" friendlyPos="true">
        <access lane="-32807955_0" pos="0.00" length="74.25" friendlyPos="1"/>
        <access lane="151267561_0" pos="8.97" length="124.37" friendlyPos="1"/>
        <access lane="32807955_0" pos="284.79" length="78.97" friendlyPos="1"/>
        <access lane="37842557_0" pos="40.63" length="45.67" friendlyPos="1"/>
        <access lane="45524902_0" pos="46.53" length="143.51" friendlyPos="1"/>
    </busStop>
    <busStop id="1934095626" name="Oberesslingen Bahnhof (Nord)" lane="921020467#2_0" startPos="34.49" endPos="49.49" friendlyPos="true">
        <access lane="41949229#2_0" pos="5.16" length="25.04" friendlyPos="1"/>
        <access lane="41949229#3_0" pos="0.20" length="22.02" friendlyPos="1"/>
        <access lane="41949236_0" pos="30.16" length="24.55" friendlyPos="1"/>
        <access lane="694116146#1_0" pos="28.56" length="23.98" friendlyPos="1"/>
        <access lane="694116147_0" pos="0.00" length="11.26" friendlyPos="1"/>
    </busStop>
    <busStop id="1967351665" name="Flandernstraße" lane="186037699#0_1" startPos="18.77" endPos="33.77" friendlyPos="true" lines="X20"/>
    <busStop id="2100381832" name="Schulzentrum Nord" lane="12099342#1_2" startPos="100.80" endPos="115.80" friendlyPos="true"/>
    <busStop id="2100381840" name="Seracher Straße" lane="552812219_1" startPos="33.70" endPos="48.70" friendlyPos="true"/>
    <busStop id="2102263746" name="Sulzgrieser Steige" lane="23316365_1" startPos="93.18" endPos="108.18" friendlyPos="true"/>
    <busStop id="2118718025" name="Anna-Schieber-Weg" lane="785623013#0_0" startPos="9.09" endPos="24.09" friendlyPos="true">
        <access lane="-34517004#2_0" pos="4.16" length="13.35" friendlyPos="1"/>
        <access lane="-34517004#3_0" pos="27.15" length="18.65" friendlyPos="1"/>
        <access lane="281967841_0" pos="27.19" length="22.77" friendlyPos="1"/>
        <access lane="34517004#2_0" pos="42.85" length="16.35" friendlyPos="1"/>
        <access lane="34517004#3_0" pos="0.00" length="21.01" friendlyPos="1"/>
    </busStop>
    <busStop id="2125467401" name="Wäldenbronn Kreuzung" lane="12098881#5_1" startPos="8.41" endPos="23.41" friendlyPos="true"/>
    <busStop id="2125467407" name="Wäldenbronn Kreuzung" lane="12098881#3_1" startPos="0.00" endPos="15.00" friendlyPos="true"/>
    <busStop id="2128183646" name="Kirchackerstraße" lane="205275738#0_1" startPos="11.27" endPos="26.27" friendlyPos="true"/>
    <busStop id="2128184468" name="Langer Weg" lane="560583354_1" startPos="15.16" endPos="30.16" friendlyPos="true"/>
    <busStop id="2157925673" name="Ebene" lane="387296028#0_1" startPos="15.86" endPos="30.86" friendlyPos="true"/>
    <busStop id="2161952456" name="Bergstraße" lane="31157172#4_0" startPos="11.86" endPos="26.86" friendlyPos="true">
        <access lane="688219960_0" pos="16.39" length="14.97" friendlyPos="1"/>
        <access lane="688219962_0" pos="0.49" length="15.59" friendlyPos="1"/>
        <access lane="688219964_0" pos="5.82" length="16.22" friendlyPos="1"/>
        <access lane="688219965_0" pos="1.12" length="22.31" friendlyPos="1"/>
        <access lane="688229199_0" pos="0.00" length="132.12" friendlyPos="1"/>
    </busStop>
    <busStop id="2164671068" name="Maienwalterstraße" lane="24508781#0_1" startPos="0.00" endPos="15.00" friendlyPos="true"/>
    <busStop id="2166264937" name="Maienwalterstraße" lane="1035471357#0_0" startPos="4.26" endPos="19.26" friendlyPos="true">
        <access lane="-1035471357#0_0" pos="6.54" length="7.05" friendlyPos="1"/>