<routes>
    <vehicle id="('de:vvs:30061_::1-T0-10',)" route="('de:vvs:30061_::1-T0-10',)" type="bus" depart="24720" line="('de:vvs:30061_::1-T0-10',)">
        <param key="gtfs.route_name" value="61"/>
        <param key="gtfs.trip_headsign" value="Obertürkheim Bf"/>
    </vehicle>
    <vehicle id="('de:vvs:30061_::1-T0-101',)" route="('de:vvs:30061_::1-T0-10',)" type="bus" depart="79620" line="('de:vvs:30061_::1-T0-10',)">
        <param key="gtfs.route_name" value="61"/>
        <param key="gtfs.trip_headsign" value="Obertürkheim Bf"/>
    </vehicle>
    <vehicle id="('de:vvs:30061_::1-T0-103',)" route="('de:vvs:30061_::1-T0-10',)" type="bus" depart="81420" line="('de:vvs:30061_::1-T0-10',)">
        <param key="gtfs.route_name" value="61"/>
        <param key="gtfs.trip_headsign" value="Obertürkheim Bf"/>
    </vehicle>
    <vehicle id="('de:vvs:30061_::1-T0-105',)" route="('de:vvs:30061_::1-T0-10',)" type="bus" depart="83220" line="('de:vvs:30061_::1-T0-10',)">
        <param key="gtfs.route_name" value="61"/>
        <param key="gtfs.trip_headsign" value="Obertürkheim Bf"/>
    </vehicle>
    <vehicle id="('de:vvs:30061_::1-T0-107',)" route="('de:vvs:30061_::1-T0-10',)" type="bus" depart="85020" line="('de:vvs:30061_::1-T0-10',)">
        <param key="gtfs.route_name" value="61"/>
        <param key="gtfs.trip_headsign" value="Obertürkheim Bf"/>
    </vehicle>
    <vehicle id="('de:vvs:30061_::1-T0-109',)" route="('de:vvs:30061_::1-T0-10',)" type="bus" depart="86820" line="('de:vvs:30061_::1-T0-10',)">
        <param key="gtfs.route_name" value="61"/>
        <param key="gtfs.trip_headsign" value="Obertürkheim Bf"/>
    </vehicle>
    <vehicle id="('de:vvs:30061_::1-T0-109.trimmed',)" route="('de:vvs:30061_::1-T0-10',)" type="bus" depart="86820" line="('de:vvs:30061_::1-T0-10',)">
        <param key="gtfs.route_name" value="61"/>
        <param key="gtfs.trip_headsign" value="Obertürkheim Bf"/>
    </vehicle>
    <vehicle id="('de:vvs:30061_::1-T0-111',)" route="('de:vvs:30061_::1-T0-10',)" type="bus" depart="88620" line="('de:vvs:30061_::1-T0-10',)">
        <param key="gtfs.route_name" value="61"/>
        <param key="gtfs.trip_headsign" value="Obertürkheim Bf"/>
    </vehicle>
    <vehicle id="('de:vvs:30061_::1-T0-113',)" route="('de:vvs:30061_::1-T0-113',)" type="bus" depart="15960" line="('de:vvs:30061_::1-T0-113',)">
        <param key="gtfs.route_name" value="61"/>
        <param key="gtfs.trip_headsign" value="Rotenberg"/>
    </vehicle>
    <vehicle id="('de:vvs:30061_::1-T0-115',)" route="('de:vvs:30061_::1-T0-113',)" type="bus" depart="17760" line="('de:vvs:30061_::1-T0-113',)">
        <param key="gtfs.route_name" value="61"/>
        <param key="gtfs.trip_headsign" value="Rotenberg"/>
    </vehicle>
    <vehicle id="('de:vvs:30061_::1-T0-117',)" route="('de:vvs:30061_::1-T0-113',)" type="bus" depart="19560" line="('de:vvs:30061_::1-T0-113',)">
        <param key="gtfs.route_name" value="61"/>
        <param key="gtfs.trip_headsign" value="Rotenberg"/>
    </vehicle>
    <vehicle id="('de:vvs:30061_::1-T0-119',)" route="('de:vvs:30061_::1-T0-113',)" type="bus" depart="21360" line="('de:vvs:30061_::1-T0-113',)">
        <param key="gtfs.route_name" value="61"/>
        <param key="gtfs.trip_headsign" value="Rotenberg"/>
    </vehicle>
    <vehicle id="('de:vvs:30061_::1-T0-12',)" route="('de:vvs:30061_::1-T0-10',)" type="bus" depart="25920" line="('de:vvs:30061_::1-T0-10',)">
        <param key="gtfs.route_name" value="61"/>
        <param key="gtfs.trip_headsign" value="Obertürkheim Bf"/>
    </vehicle>
    <vehicle id="('de:vvs:30061_::1-T0-121',)" route="('de:vvs:30061_::1-T0-113',)" type="bus" depart="23160" line="('de:vvs:30061_::1-T0-113',)">
        <param key="gtfs.route_name" value="61"/>
        <param key="gtfs.trip_headsign" value="Rotenberg"/>
    </vehicle>
    <vehicle id="('de:vvs:30061_::1-T0-123',)" route="('de:vvs:30061_::1-T0-113',)" type="bus" depart="24840" line="('de:vvs:30061_::1-T0-113',)">
        <param key="gtfs.route_name" value="61"/>
        <param key="gtfs.trip_headsign" value="Rotenberg"/>
    </vehicle>
    <vehicle id="('de:vvs:30061_::1-T0-125',)" route="('de:vvs:30061_::1-T0-113',)" type="bus" depart="26040" line="('de:vvs:30061_::1-T0-113',)">
        <param key="gtfs.route_name" value="61"/>
        <param key="gtfs.trip_headsign" value="Rotenberg"/>
    </vehicle>
    <vehicle id="('de:vvs:30061_::1-T0-126',)" route="('de:vvs:30061_::1-T0-126',)" type="bus" depart="26460" line="('de:vvs:30061_::1-T0-126',)">
        <param key="gtfs.route_name" value="61"/>
        <param key="gtfs.trip_headsign" value="Untertürkheim Bf"/>
    </vehicle>
    <vehicle id="('de:vvs:30061_::1-T0-127',)" route="('de:vvs:30061_::1-T0-113',)" type="bus" depart="26460" line="('de:vvs:30061_::1-T0-113',)">
        <param key="gtfs.route_name" value="61"/>
        <param key="gtfs.trip_headsign" value="Untertürkheim Bf"/>
    </vehicle>
    <vehicle id="('de:vvs:30061_::1-T0-129',)" route="('de:vvs:30061_::1-T0-113',)" type="bus" depart="27240" line="('de:vvs:30061_::1-T0-113',)">
        <param key="gtfs.route_name" value="61"/>
        <param key="gtfs.trip_headsign" value="Rotenberg"/>
    </vehicle>
    <vehicle id="('de:vvs:30061_::1-T0-131',)" route="('de:vvs:30061_::1-T0-113',)" type="bus" depart="28440" line="('de:vvs:30061_::1-T0-113',)">
        <param key="gtfs.route_name" value="61"/>
        <param key="gtfs.trip_headsign" value="Rotenberg"/>
    </vehicle>
    <vehicle id="('de:vvs:30061_::1-T0-133',)" route="('de:vvs:30061_::1-T0-113',)" type="bus" depart="29640" line="('de:vvs:30061_::1-T0-113',)">
        <param key="gtfs.route_name" value="61"/>
        <param key="gtfs.trip_headsign" value="Rotenberg"/>
    </vehicle>
    <vehicle id="('de:vvs:30061_::1-T0-135',)" route="('de:vvs:30061_::1-T0-113',)" type="bus" depart="30840" line="('de:vvs:30061_::1-T0-113',)">
        <param key="gtfs.route_name" value="61"/>
        <param key="gtfs.trip_headsign" value="Rotenberg"/>
    </vehicle>
    <vehicle id="('de:vvs:30061_::1-T0-137',)" route="('de:vvs:30061_::1-T0-113',)" type="bus" depart="32040" line="('de:vvs:30061_::1-T0-113',)">
        <param key="gtfs.route_name" value="61"/>
        <param key="gtfs.trip_headsign" value="Rotenberg"/>
    </vehicle>
    <vehicle id="('de:vvs:30061_::1-T0-139',)" route="('de:vvs:30061_::1-T0-113',)" type="bus" depart="33240" line="('de:vvs:30061_::1-T0-113',)">
        <param key="gtfs.route_name" value="61"/>
        <param key="gtfs.trip_headsign" value="Rotenberg"/>
    </vehicle>
    <vehicle id="('de:vvs:30061_::1-T0-14',)" route="('de:vvs:30061_::1-T0-10',)" type="bus" depart="27120" line="('de:vvs:30061_::1-T0-10',)">
        <param key="gtfs.route_name" value="61"/>
        <param key="gtfs.trip_headsign" value="Obertürkheim Bf"/>
    </vehicle>
    <vehicle id="('de:vvs:30061_::1-T0-141',)" route="('de:vvs:30061_::1-T0-113',)" type="bus" depart="34440" line="('de:vvs:30061_::1-T0-113',)">
        <param key="gtfs.route_name" value="61"/>
        <param key="gtfs.trip_headsign" value="Rotenberg"/>
    </vehicle>
    <vehicle id="('de:vvs:30061_::1-T0-143',)" route="('de:vvs:30061_::1-T0-113',)" type="bus" depart="35640" line="('de:vvs:30061_::1-T0-113',)">
        <param key="gtfs.route_name" value="61"/>
        <param key="gtfs.trip_headsign" value="Rotenberg"/>
    </vehicle>
    <vehicle id="('de:vvs:30061_::1-T0-145',)" route="('de:vvs:30061_::1-T0-113',)" type="bus" depart="36840" line="('de:vvs:30061_::1-T0-113',)">
        <param key="gtfs.route_name" value="61"/>
        <param key="gtfs.trip_headsign" value="Rotenberg"/>
    </vehicle>
    <vehicle id="('de:vvs:30061_::1-T0-147',)" route="('de:vvs:30061_::1-T0-113',)" type="bus" depart="38040" line="('de:vvs:30061_::1-T0-113',)">
        <param key="gtfs.route_name" value="61"/>
        <param key="gtfs.trip_headsign" value="Rotenberg"/>
    </vehicle>
    <vehicle id="('de:vvs:30061_::1-T0-149',)" route="('de:vvs:30061_::1-T0-113',)" type="bus" depart="39240" line="('de:vvs:30061_::1-T0-113',)">
        <param key="gtfs.route_name" value="61"/>
        <param key="gtfs.trip_headsign" value="Rotenberg"/>
    </vehicle>
    <vehicle id="('de:vvs:30061_::1-T0-15',)" route="('de:vvs:30061_::1-T0-10',)" type="bus" depart="27420" line="('de:vvs:30061_::1-T0-10',)">
        <param key="gtfs.route_name" value="61"/>
        <param key="gtfs.trip_headsign" value="Obertürkheim Bf"/>
    </vehicle>
    <vehicle id="('de:vvs:30061_::1-T0-151',)" route="('de:vvs:30061_::1-T0-113',)" type="bus" depart="40440" line="('de:vvs:30061_::1-T0-113',)">
        <param key="gtfs.route_name" value="61"/>
        <param key="gtfs.trip_headsign" value="Rotenberg"/>
    </vehicle>
    <vehicle id="('de:vvs:30061_::1-T0-153',)" route="('de:vvs:30061_::1-T0-113',)" type="bus" depart="41640" line="('de:vvs:30061_::1-T0-113',)">
        <param key="gtfs.route_name" value="61"/>
        <param key="gtfs.trip_headsign" value="Rotenberg"/>
    </vehicle>
    <vehicle id="('de:vvs:30061_::1-T0-155',)" route="('de:vvs:30061_::1-T0-113',)" type="bus" depart="42840" line="('de:vvs:30061_::1-T0-113',)">
        <param key="gtfs.route_name" value="61"/>
        <param key="gtfs.trip_headsign" value="Rotenberg"/>
    </vehicle>
    <vehicle id="('de:vvs:30061_::1-T0-157',)" route="('de:vvs:30061_::1-T0-113',)" type="bus" depart="44040" line="('de:vvs:30061_::1-T0-113',)">
        <param key="gtfs.route_name" value="61"/>
        <param key="gtfs.trip_headsign" value="Rotenberg"/>
    </vehicle>
    <vehicle id="('de:vvs:30061_::1-T0-159',)" route="('de:vvs:30061_::1-T0-113',)" type="bus" depart="45240" line="('de:vvs:30061_::1-T0-113',)">
        <param key="gtfs.route_name" value="61"/>
        <param key="gtfs.trip_headsign" value="Rotenberg"/>
    </vehicle>
    <vehicle id="('de:vvs:30061_::1-T0-161',)" route="('de:vvs:30061_::1-T0-113',)" type="bus" depart="46440" line="('de:vvs:30061_::1-T0-113',)">
        <param key="gtfs.route_name" value="61"/>
        <param key="gtfs.trip_headsign" value="Rotenberg"/>
    </vehicle>
    <vehicle id="('de:vvs:30061_::1-T0-163',)" route="('de:vvs:30061_::1-T0-113',)" type="bus" depart="47640" line="('de:vvs:30061_::1-T0-113',)">
        <param key="gtfs.route_name" value="61"/>
        <param key="gtfs.trip_headsign" value="Rotenberg"/>
    </vehicle>
    <vehicle id="('de:vvs:30061_::1-T0-165',)" route="('de:vvs:30061_::1-T0-113',)" type="bus" depart="48840" line="('de:vvs:30061_::1-T0-113',)">
        <param key="gtfs.route_name" value="61"/>
        <param key="gtfs.trip_headsign" value="Rotenberg"/>
    </vehicle>
    <vehicle id="('de:vvs:30061_::1-T0-167',)" route="('de:vvs:30061_::1-T0-113',)" type="bus" depart="50040" line="('de:vvs:30061_::1-T0-113',)">
        <param key="gtfs.route_name" value="61"/>
        <param key="gtfs.trip_headsign" value="Rotenberg"/>
    </vehicle>
    <vehicle id="('de:vvs:30061_::1-T0-169',)" route="('de:vvs:30061_::1-T0-113',)" type="bus" depart="51240" line="('de:vvs:30061_::1-T0-113',)">
        <param key="gtfs.route_name" value="61"/>
        <param key="gtfs.trip_headsign" value="Rotenberg"/>
    </vehicle>
    <vehicle id="('de:vvs:30061_::1-T0-17',)" route="('de:vvs:30061_::1-T0-10',)" type="bus" depart="28320" line="('de:vvs:30061_::1-T0-10',)">
        <param key="gtfs.route_name" value="61"/>
        <param key="gtfs.trip_headsign" value="Obertürkheim Bf"/>
    </vehicle>
    <vehicle id="('de:vvs:30061_::1-T0-171',)" route="('de:vvs:30061_::1-T0-113',)" type="bus" depart="52440" line="('de:vvs:30061_::1-T0-113',)">
        <param key="gtfs.route_name" value="61"/>
        <param key="gtfs.trip_headsign" value="Rotenberg"/>
    </vehicle>
    <vehicle id="('de:vvs:30061_::1-T0-173',)" route="('de:vvs:30061_::1-T0-113',)" type="bus" depart="53640" line="('de:vvs:30061_::1-T0-113',)">
        <param key="gtfs.route_name" value="61"/>
        <param key="gtfs.trip_headsign" value="Rotenberg"/>
    </vehicle>
    <vehicle id="('de:vvs:30061_::1-T0-175',)" route="('de:vvs:30061_::1-T0-113',)" type="bus" depart="54840" line="('de:vvs:30061_::1-T0-113',)">
        <param key="gtfs.route_name" value="61"/>
        <param key="gtfs.trip_headsign" value="Rotenberg"/>
    </vehicle>
    <vehicle id="('de:vvs:30061_::1-T0-177',)" route="('de:vvs:30061_::1-T0-113',)" type="bus" depart="56040" line="('de:vvs:30061_::1-T0-113',)">
        <param key="gtfs.route_name" value="61"/>
        <param key="gtfs.trip_headsign" value="Rotenberg"/>
    </vehicle>
    <vehicle id="('de:vvs:30061_::1-T0-179',)" route="('de:vvs:30061_::1-T0-113',)" type="bus" depart="57240" line="('de:vvs:30061_::1-T0-113',)">
        <param key="gtfs.route_name" value="61"/>
        <param key="gtfs.trip_headsign" value="Rotenberg"/>
    </vehicle>
    <vehicle id="('de:vvs:30061_::1-T0-181',)" route="('de:vvs:30061_::1-T0-113',)" type="bus" depart="58440" line="('de:vvs:30061_::1-T0-113',)">
        <param key="gtfs.route_name" value="61"/>
        <param key="gtfs.trip_headsign" value="Rotenberg"/>
    </vehicle>
    <vehicle id="('de:vvs:30061_::1-T0-183',)" route="('de:vvs:30061_::1-T0-113',)" type="bus" depart="59640" line="('de:vvs:30061_::1-T0-113',)">
        <param key="gtfs.route_name" value="61"/>
        <param key="gtfs.trip_headsign" value="Rotenberg"/>
    </vehicle>
    <vehicle id="('de:vvs:30061_::1-T0-185',)" route="('de:vvs:30061_::1-T0-113',)" type="bus" depart="60840" line="('de:vvs:30061_::1-T0-113',)">
        <param key="gtfs.route_name" value="61"/>
        <param key="gtfs.trip_headsign" value="Rotenberg"/>
    </vehicle>
    <vehicle id="('de:vvs:30061_::1-T0-187',)" route="('de:vvs:30061_::1-T0-113',)" type="bus" depart="62040" line="('de:vvs:30061_::1-T0-113',)">
        <param key="gtfs.route_name" value="61"/>
        <param key="gtfs.trip_headsign" value="Rotenberg"/>
    </vehicle>
    <vehicle id="('de:vvs:30061_::1-T0-189',)" route="('de:vvs:30061_::1-T0-113',)" type="bus" depart="63240" line="('de:vvs:30061_::1-T0-113',)">
        <param key="gtfs.route_name" value="61"/>
        <param key="gtfs.trip_headsign" value="Rotenberg"/>
    </vehicle>
    <vehicle id="('de:vvs:30061_::1-T0-19',)" route="('de:vvs:30061_::1-T0-10',)" type="bus" depart="29520" line="('de:vvs:30061_::1-T0-10',)">
        <param key="gtfs.route_name" value="61"/>
        <param key="gtfs.trip_headsign" value="Obertürkheim Bf"/>
    </vehicle>
    <vehicle id="('de:vvs:30061_::1-T0-191',)" route="('de:vvs:30061_::1-T0-113',)" type="bus" depart="64440" line="('de:vvs:30061_::1-T0-113',)">
        <param key="gtfs.route_name" value="61"/>
        <param key="gtfs.trip_headsign" value="Rotenberg"/>
    </vehicle>
    <vehicle id="('de:vvs:30061_::1-T0-193',)" route="('de:vvs:30061_::1-T0-113',)" type="bus" depart="65640" line="('de:vvs:30061_::1-T0-113',)">
        <param key="gtfs.route_name" value="61"/>
        <param key="gtfs.trip_headsign" value="Rotenberg"/>
    </vehicle>
    <vehicle id="('de:vvs:30061_::1-T0-195',)" route="('de:vvs:30061_::1-T0-113',)" type="bus" depart="66840" line="('de:vvs:30061_::1-T0-113',)">
        <param key="gtfs.route_name" value="61"/>
        <param key="gtfs.trip_headsign" value="Rotenberg"/>
    </vehicle>
    <vehicle id="('de:vvs:30061_::1-T0-197',)" route="('de:vvs:30061_::1-T0-113',)" type="bus" depart="68040" line="('de:vvs:30061_::1-T0-113',)">
        <param key="gtfs.route_name" value="61"/>
        <param key="gtfs.trip_headsign" value="Rotenberg"/>
    </vehicle>
    <vehicle id="('de:vvs:30061_::1-T0-199',)" route="('de:vvs:30061_::1-T0-113',)" type="bus" depart="69240" line="('de:vvs:30061_::1-T0-113',)">
        <param key="gtfs.route_name" value="61"/>
        <param key="gtfs.trip_headsign" value="Rotenberg"/>
    </vehicle>
    <vehicle id="('de:vvs:30061_::1-T0-2',)" route="('de:vvs:30061_::1-T0-10',)" type="bus" depart="17160" line="('de:vvs:30061_::1-T0-10',)">
        <param key="gtfs.route_name" value="61"/>
        <param key="gtfs.trip_headsign" value="Obertürkheim Bf"/>
    </vehicle>
    <vehicle id="('de:vvs:30061_::1-T0-201',)" route="('de:vvs:30061_::1-T0-113',)" type="bus" depart="70440" line="('de:vvs:30061_::1-T0-113',)">
        <param key="gtfs.route_name" value="61"/>
        <param key="gtfs.trip_headsign" value="Rotenberg"/>
    </vehicle>
    <vehicle id="('de:vvs:30061_::1-T0-203',)" route="('de:vvs:30061_::1-T0-113',)" type="bus" depart="72360" line="('de:vvs:30061_::1-T0-113',)">
        <param key="gtfs.route_name" value="61"/>
        <param key="gtfs.trip_headsign" value="Rotenberg"/>
    </vehicle>
    <vehicle id="('de:vvs:30061_::1-T0-205',)" route="('de:vvs:30061_::1-T0-113',)" type="bus" depart="74160" line="('de:vvs:30061_::1-T0-113',)">
        <param key="gtfs.route_name" value="61"/>
        <param key="gtfs.trip_headsign" value="Rotenberg"/>
    </vehicle>
    <vehicle id="('de:vvs:30061_::1-T0-207',)" route="('de:vvs:30061_::1-T0-113',)" type="bus" depart="75960" line="('de:vvs:30061_::1-T0-113',)">
        <param key="gtfs.route_name" value="61"/>
        <param key="gtfs.trip_headsign" value="Rotenberg"/>
    </vehicle>
    <vehicle id="('de:vvs:30061_::1-T0-209',)" route="('de:vvs:30061_::1-T0-113',)" type="bus" depart="77760" line="('de:vvs:30061_::1-T0-113',)">
        <param key="gtfs.route_name" value="61"/>
        <param key="gtfs.trip_headsign" value="Rotenberg"/>
    </vehicle>
    <vehicle id="('de:vvs:30061_::1-T0-21',)" route="('de:vvs:30061_::1-T0-10',)" type="bus" depart="30720" line="('de:vvs:30061_::1-T0-10',)">
        <param key="gtfs.route_name" value="61"/>
        <param key="gtfs.trip_headsign" value="Obertürkheim Bf"/>
    </vehicle>
    <vehicle id="('de:vvs:30061_::1-T0-211',)" route="('de:vvs:30061_::1-T0-113',)" type="bus" depart="79560" line="('de:vvs:30061_::1-T0-113',)">
        <param key="gtfs.route_name" value="61"/>
        <param key="gtfs.trip_headsign" value="Rotenberg"/>
    </vehicle>
    <vehicle id="('de:vvs:30061_::1-T0-213',)" route="('de:vvs:30061_::1-T0-113',)" type="bus" depart="81360" line="('de:vvs:30061_::1-T0-113',)">
        <param key="gtfs.route_name" value="61"/>
        <param key="gtfs.trip_headsign" value="Rotenberg"/>
    </vehicle>
    <vehicle id="('de:vvs:30061_::1-T0-215',)" route="('de:vvs:30061_::1-T0-113',)" type="bus" depart="83160" line="('de:vvs:30061_::1-T0-113',)">
        <param key="gtfs.route_name" value="61"/>
        <param key="gtfs.trip_headsign" value="Rotenberg"/>
    </vehicle>
    <vehicle id="('de:vvs:30061_::1-T0-217',)" route="('de:vvs:30061_::1-T0-113',)" type="bus" depart="84960" line="('de:vvs:30061_::1-T0-113',)">
        <param key="gtfs.route_name" value="61"/>
        <param key="gtfs.trip_headsign" value="Rotenberg"/>
    </vehicle>
    <vehicle id="('de:vvs:30061_::1-T0-219',)" route="('de:vvs:30061_::1-T0-113',)" type="bus" depart="86760" line="('de:vvs:30061_::1-T0-113',)">
        <param key="gtfs.route_name" value="61"/>
        <param key="gtfs.trip_headsign" value="Rotenberg"/>
    </vehicle>
    <vehicle id="('de:vvs:30061_::1-T0-221',)" route="('de:vvs:30061_::1-T0-113',)" type="bus" depart="87960" line="('de:vvs:30061_::1-T0-113',)">
        <param key="gtfs.route_name" value="61"/>
        <param key="gtfs.trip_headsign" value="Untertürkheim Bf"/>
    </vehicle>
    <vehicle id="('de:vvs:30061_::1-T0-23',)" route="('de:vvs:30061_::1-T0-10',)" type="bus" depart="31920" line="('de:vvs:30061_::1-T0-10',)">
        <param key="gtfs.route_name" value="61"/>
        <param key="gtfs.trip_headsign" value="Obertürkheim Bf"/>
    </vehicle>
    <vehicle id="('de:vvs:30061_::1-T0-25',)" route="('de:vvs:30061_::1-T0-10',)" type="bus" depart="33120" line="('de:vvs:30061_::1-T0-10',)">
        <param key="gtfs.route_name" value="61"/>
        <param key="gtfs.trip_headsign" value="Obertürkheim Bf"/>
    </vehicle>
    <vehicle id="('de:vvs:30061_::1-T0-27',)" route="('de:vvs:30061_::1-T0-10',)" type="bus" depart="34320" line="('de:vvs:30061_::1-T0-10',)">
        <param key="gtfs.route_name" value="61"/>
        <param key="gtfs.trip_headsign" value="Obertürkheim Bf"/>
    </vehicle>
    <vehicle id="('de:vvs:30061_::1-T0-29',)" route="('de:vvs:30061_::1-T0-10',)" type="bus" depart="35520" line="('de:vvs:30061_::1-T0-10',)">
        <param key="gtfs.route_name" value="61"/>
        <param key="gtfs.trip_headsign" value="Obertürkheim Bf"/>
    </vehicle>
    <vehicle id="('de:vvs:30061_::1-T0-31',)" route="('de:vvs:30061_::1-T0-10',)" type="bus" depart="36720" line="('de:vvs:30061_::1-T0-10',)">
        <param key="gtfs.route_name" value="61"/>
        <param key="gtfs.trip_headsign" value="Obertürkheim Bf"/>
    </vehicle>
    <vehicle id="('de:vvs:30061_::1-T0-33',)" route="('de:vvs:30061_::1-T0-10',)" type="bus" depart="37920" line="('de:vvs:30061_::1-T0-10',)">
        <param key="gtfs.route_name" value="61"/>
        <param key="gtfs.trip_headsign" value="Obertürkheim Bf"/>
    </vehicle>
    <vehicle id="('de:vvs:30061_::1-T0-35',)" route="('de:vvs:30061_::1-T0-10',)" type="bus" depart="39120" line="('de:vvs:30061_::1-T0-10',)">
        <param key="gtfs.route_name" value="61"/>
        <param key="gtfs.trip_headsign" value="Obertürkheim Bf"/>
    </vehicle>
    <vehicle id="('de:vvs:30061_::1-T0-37',)" route="('de:vvs:30061_::1-T0-10',)" type="bus" depart="40320" line="('de:vvs:30061_::1-T0-10',)">
        <param key="gtfs.route_name" value="61"/>
        <param key="gtfs.trip_headsign" value="Obertürkheim Bf"/>
    </vehicle>
    <vehicle id="('de:vvs:30061_::1-T0-39',)" route="('de:vvs:30061_::1-T0-10',)" type="bus" depart="41520" line="('de:vvs:30061_::1-T0-10',)">
        <param key="gtfs.route_name" value="61"/>
        <param key="gtfs.trip_headsign" value="Obertürkheim Bf"/>
    </vehicle>
    <vehicle id="('de:vvs:30061_::1-T0-4',)" route="('de:vvs:30061_::1-T0-10',)" type="bus" depart="18540" line="('de:vvs:30061_::1-T0-10',)">
        <param key="gtfs.route_name" value="61"/>
        <param key="gtfs.trip_headsign" value="Obertürkheim Bf"/>
    </vehicle>
    <vehicle id="('de:vvs:30061_::1-T0-41',)" route="('de:vvs:30061_::1-T0-10',)" type="bus" depart="42720" line="('de:vvs:30061_::1-T0-10',)">
        <param key="gtfs.route_name" value="61"/>
        <param key="gtfs.trip_headsign" value="Obertürkheim Bf"/>
    </vehicle>
    <vehicle id="('de:vvs:30061_::1-T0-43',)" route="('de:vvs:30061_::1-T0-10',)" type="bus" depart="43920" line="('de:vvs:30061_::1-T0-10',)">
        <param key="gtfs.route_name" value="61"/>
        <param key="gtfs.trip_headsign" value="Obertürkheim Bf"/>
    </vehicle>
    <vehicle id="('de:vvs:30061_::1-T0-44',)" route="('de:vvs:30061_::1-T0-10',)" type="bus" depart="44580" line="('de:vvs:30061_::1-T0-10',)">
        <param key="gtfs.route_name" value="61"/>
        <param key="gtfs.trip_headsign" value="Obertürkheim Bf"/>
    </vehicle>
    <vehicle id="('de:vvs:30061_::1-T0-46',)" route="('de:vvs:30061_::1-T0-10',)" type="bus" depart="45120" line="('de:vvs:30061_::1-T0-10',)">
        <param key="gtfs.route_name" value="61"/>
        <param key="gtfs.trip_headsign" value="Obertürkheim Bf"/>
    </vehicle>
    <vehicle id="('de:vvs:30061_::1-T0-48',)" route="('de:vvs:30061_::1-T0-10',)" type="bus" depart="46320" line="('de:vvs:30061_::1-T0-10',)">
        <param key="gtfs.route_name" value="61"/>
        <param key="gtfs.trip_headsign" value="Obertürkheim Bf"/>
    </vehicle>
    <vehicle id="('de:vvs:30061_::1-T0-50',)" route="('de:vvs:30061_::1-T0-10',)" type="bus" depart="47520" line="('de:vvs:30061_::1-T0-10',)">
        <param key="gtfs.route_name" value="61"/>
        <param key="gtfs.trip_headsign" value="Obertürkheim Bf"/>
    </vehicle>
    <vehicle id="('de:vvs:30061_::1-T0-51',)" route="('de:vvs:30061_::1-T0-10',)" type="bus" depart="47880" line="('de:vvs:30061_::1-T0-10',)">
        <param key="gtfs.route_name" value="61"/>
        <param key="gtfs.trip_headsign" value="Obertürkheim Bf"/>
    </vehicle>
    <vehicle id="('de:vvs:30061_::1-T0-53',)" route="('de:vvs:30061_::1-T0-10',)" type="bus" depart="48720" line="('de:vvs:30061_::1-T0-10',)">
        <param key="gtfs.route_name" value="61"/>
        <param key="gtfs.trip_headsign" value="Obertürkheim Bf"/>
    </vehicle>
    <vehicle id="('de:vvs:30061_::1-T0-55',)" route="('de:vvs:30061_::1-T0-10',)" type="bus" depart="49920" line="('de:vvs:30061_::1-T0-10',)">
        <param key="gtfs.route_name" value="61"/>
        <param key="gtfs.trip_headsign" value="Obertürkheim Bf"/>
    </vehicle>
    <vehicle id="('de:vvs:30061_::1-T0-57',)" route="('de:vvs:30061_::1-T0-10',)" type="bus" depart="51120" line="('de:vvs:30061_::1-T0-10',)">
        <param key="gtfs.route_name" value="61"/>
        <param key="gtfs.trip_headsign" value="Obertürkheim Bf"/>
    </vehicle>
    <vehicle id="('de:vvs:30061_::1-T0-59',)" route="('de:vvs:30061_::1-T0-10',)" type="bus" depart="52320" line="('de:vvs:30061_::1-T0-10',)">
        <param key="gtfs.route_name" value="61"/>
        <param key="gtfs.trip_headsign" value="Obertürkheim Bf"/>
    </vehicle>
    <vehicle id="('de:vvs:30061_::1-T0-6',)" route="('de:vvs:30061_::1-T0-10',)" type="bus" depart="20940" line="('de:vvs:30061_::1-T0-10',)">
        <param key="gtfs.route_name" value="61"/>
        <param key="gtfs.trip_headsign" value="Obertürkheim Bf"/>
    </vehicle>
    <vehicle id="('de:vvs:30061_::1-T0-61',)" route="('de:vvs:30061_::1-T0-10',)" type="bus" depart="53520" line="('de:vvs:30061_::1-T0-10',)">
        <param key="gtfs.route_name" value="61"/>
        <param key="gtfs.trip_headsign" value="Obertürkheim Bf"/>
    </vehicle>
    <vehicle id="('de:vvs:30061_::1-T0-63',)" route="('de:vvs:30061_::1-T0-10',)" type="bus" depart="54720" line="('de:vvs:30061_::1-T0-10',)">
        <param key="gtfs.route_name" value="61"/>
        <param key="gtfs.trip_headsign" value="Obertürkheim Bf"/>
    </vehicle>
    <vehicle id="('de:vvs:30061_::1-T0-65',)" route="('de:vvs:30061_::1-T0-10',)" type="bus" depart="55920" line="('de:vvs:30061_::1-T0-10',)">
        <param key="gtfs.route_name" value="61"/>
        <param key="gtfs.trip_headsign" value="Obertürkheim Bf"/>
    </vehicle>
    <vehicle id="('de:vvs:30061_::1-T0-67',)" route="('de:vvs:30061_::1-T0-10',)" type="bus" depart="57120" line="('de:vvs:30061_::1-T0-10',)">
        <param key="gtfs.route_name" value="61"/>
        <param key="gtfs.trip_headsign" value="Obertürkheim Bf"/>
    </vehicle>
    <vehicle id="('de:vvs:30061_::1-T0-69',)" route="('de:vvs:30061_::1-T0-10',)" type="bus" depart="58320" line="('de:vvs:30061_::1-T0-10',)">
        <param key="gtfs.route_name" value="61"/>
        <param key="gtfs.trip_headsign" value="Obertürkheim Bf"/>
    </vehicle>
    <vehicle id="('de:vvs:30061_::1-T0-71',)" route="('de:vvs:30061_::1-T0-10',)" type="bus" depart="59520" line="('de:vvs:30061_::1-T0-10',)">
        <param key="gtfs.route_name" value="61"/>
        <param key="gtfs.trip_headsign" value="Obertürkheim Bf"/>
    </vehicle>
    <vehicle id="('de:vvs:30061_::1-T0-73',)" route="('de:vvs:30061_::1-T0-10',)" type="bus" depart="60720" line="('de:vvs:30061_::1-T0-10',)">
        <param key="gtfs.route_name" value="61"/>
        <param key="gtfs.trip_headsign" value="Obertürkheim Bf"/>
    </vehicle>
    <vehicle id="('de:vvs:30061_::1-T0-75',)" route="('de:vvs:30061_::1-T0-10',)" type="bus" depart="61920" line="('de:vvs:30061_::1-T0-10',)">
        <param key="gtfs.route_name" value="61"/>
        <param key="gtfs.trip_headsign" value="Obertürkheim Bf"/>
    </vehicle>
    <vehicle id="('de:vvs:30061_::1-T0-77',)" route="('de:vvs:30061_::1-T0-10',)" type="bus" depart="63120" line="('de:vvs:30061_::1-T0-10',)">
        <param key="gtfs.route_name" value="61"/>
        <param key="gtfs.trip_headsign" value="Obertürkheim Bf"/>
    </vehicle>
    <vehicle id="('de:vvs:30061_::1-T0-79',)" route="('de:vvs:30061_::1-T0-10',)" type="bus" depart="64320" line="('de:vvs:30061_::1-T0-10',)">
        <param key="gtfs.route_name" value="61"/>
        <param key="gtfs.trip_headsign" value="Obertürkheim Bf"/>
    </vehicle>
    <vehicle id="('de:vvs:30061_::1-T0-8',)" route="('de:vvs:30061_::1-T0-10',)" type="bus" depart="22920" line="('de:vvs:30061_::1-T0-10',)">
        <param key="gtfs.route_name" value="61"/>
        <param key="gtfs.trip_headsign" value="Obertürkheim Bf"/>
    </vehicle>
    <vehicle id="('de:vvs:30061_::1-T0-81',)" route="('de:vvs:30061_::1-T0-10',)" type="bus" depart="65520" line="('de:vvs:30061_::1-T0-10',)">
        <param key="gtfs.route_name" value="61"/>
        <param key="gtfs.trip_headsign" value="Obertürkheim Bf"/>
    </vehicle>
    <vehicle id="('de:vvs:30061_::1-T0-83',)" route="('de:vvs:30061_::1-T0-10',)" type="bus" depart="66720" line="('de:vvs:30061_::1-T0-10',)">
        <param key="gtfs.route_name" value="61"/>
        <param key="gtfs.trip_headsign" value="Obertürkheim Bf"/>
    </vehicle>
    <vehicle id="('de:vvs:30061_::1-T0-85',)" route="('de:vvs:30061_::1-T0-10',)" type="bus" depart="67920" line="('de:vvs:30061_::1-T0-10',)">
        <param key="gtfs.route_name" value="61"/>
        <param key="gtfs.trip_headsign" value="Obertürkheim Bf"/>
    </vehicle>
    <vehicle id="('de:vvs:30061_::1-T0-87',)" route="('de:vvs:30061_::1-T0-10',)" type="bus" depart="69120" line="('de:vvs:30061_::1-T0-10',)">
        <param key="gtfs.route_name" value="61"/>
        <param key="gtfs.trip_headsign" value="Obertürkheim Bf"/>
    </vehicle>
    <vehicle id="('de:vvs:30061_::1-T0-89',)" route="('de:vvs:30061_::1-T0-10',)" type="bus" depart="70320" line="('de:vvs:30061_::1-T0-10',)">
        <param key="gtfs.route_name" value="61"/>
        <param key="gtfs.trip_headsign" value="Obertürkheim Bf"/>
    </vehicle>
    <vehicle id="('de:vvs:30061_::1-T0-91',)" route="('de:vvs:30061_::1-T0-10',)" type="bus" depart="71520" line="('de:vvs:30061_::1-T0-10',)">