<routes>
    <vehicle id="('de:vvs:vvs-11-12::1-T0-1',)" route="('de:vvs:vvs-11-12::1-T0-1',)" type="train" depart="35700" line="('de:vvs:vvs-11-12::1-T0-1',)">
        <param key="gtfs.route_name" value="MEX12"/>
        <param key="gtfs.trip_headsign" value="Heilbronn Hauptbahnhof"/>
    </vehicle>
    <vehicle id="('de:vvs:vvs-11-12::1-T0-10',)" route="('de:vvs:vvs-11-12::1-T0-10',)" type="train" depart="46560" line="('de:vvs:vvs-11-12::1-T0-10',)">
        <param key="gtfs.route_name" value="MEX12"/>
        <param key="gtfs.trip_headsign" value="Heilbronn Hauptbahnhof"/>
    </vehicle>
    <vehicle id="('de:vvs:vvs-11-12::1-T0-11',)" route="('de:vvs:vvs-11-12::1-T0-10',)" type="train" depart="53760" line="('de:vvs:vvs-11-12::1-T0-10',)">
        <param key="gtfs.route_name" value="MEX12"/>
        <param key="gtfs.trip_headsign" value="Heilbronn Hauptbahnhof"/>
    </vehicle>
    <vehicle id="('de:vvs:vvs-11-12::1-T0-12',)" route="('de:vvs:vvs-11-12::1-T0-1',)" type="train" depart="28620" line="('de:vvs:vvs-11-12::1-T0-1',)">
        <param key="gtfs.route_name" value="MEX12"/>
        <param key="gtfs.trip_headsign" value="Heilbronn Hauptbahnhof"/>
    </vehicle>
    <vehicle id="('de:vvs:vvs-11-12::1-T0-13',)" route="('de:vvs:vvs-11-12::1-T0-1',)" type="train" depart="50040" line="('de:vvs:vvs-11-12::1-T0-1',)">
        <param key="gtfs.route_name" value="MEX12"/>
        <param key="gtfs.trip_headsign" value="Heilbronn Hauptbahnhof"/>
    </vehicle>
    <vehicle id="('de:vvs:vvs-11-12::1-T0-15',)" route="('de:vvs:vvs-11-12::1-T0-10',)" type="train" depart="32160" line="('de:vvs:vvs-11-12::1-T0-10',)">
        <param key="gtfs.route_name" value="MEX12"/>
        <param key="gtfs.trip_headsign" value="Heilbronn Hauptbahnhof"/>
    </vehicle>
    <vehicle id="('de:vvs:vvs-11-12::1-T0-16',)" route="('de:vvs:vvs-11-12::1-T0-1',)" type="train" depart="64500" line="('de:vvs:vvs-11-12::1-T0-1',)">
        <param key="gtfs.route_name" value="MEX12"/>
        <param key="gtfs.trip_headsign" value="Mosbach-Neckarelz"/>
    </vehicle>
    <vehicle id="('de:vvs:vvs-11-12::1-T0-19',)" route="('de:vvs:vvs-11-12::1-T0-10',)" type="train" depart="68160" line="('de:vvs:vvs-11-12::1-T0-10',)">
        <param key="gtfs.route_name" value="MEX12"/>
        <param key="gtfs.trip_headsign" value="Heilbronn Hauptbahnhof"/>
    </vehicle>
    <vehicle id="('de:vvs:vvs-11-12::1-T0-2',)" route="('de:vvs:vvs-11-12::1-T0-10',)" type="train" depart="39360" line="('de:vvs:vvs-11-12::1-T0-10',)">
        <param key="gtfs.route_name" value="MEX12"/>
        <param key="gtfs.trip_headsign" value="Heilbronn Hauptbahnhof"/>
    </vehicle>
    <vehicle id="('de:vvs:vvs-11-12::1-T0-20',)" route="('de:vvs:vvs-11-12::1-T0-10',)" type="train" depart="71760" line="('de:vvs:vvs-11-12::1-T0-10',)">
        <param key="gtfs.route_name" value="MEX12"/>
        <param key="gtfs.trip_headsign" value="Heilbronn Hauptbahnhof"/>
    </vehicle>
    <vehicle id="('de:vvs:vvs-11-12::1-T0-21',)" route="('de:vvs:vvs-11-12::1-T0-10',)" type="train" depart="75360" line="('de:vvs:vvs-11-12::1-T0-10',)">
        <param key="gtfs.route_name" value="MEX12"/>
        <param key="gtfs.trip_headsign" value="Heilbronn Hauptbahnhof"/>
    </vehicle>
    <vehicle id="('de:vvs:vvs-11-12::1-T0-22',)" route="('de:vvs:vvs-11-12::1-T0-1',)" type="train" depart="78840" line="('de:vvs:vvs-11-12::1-T0-1',)">
        <param key="gtfs.route_name" value="MEX12"/>
        <param key="gtfs.trip_headsign" value="Heilbronn Hauptbahnhof"/>
    </vehicle>
    <vehicle id="('de:vvs:vvs-11-12::1-T0-23',)" route="('de:vvs:vvs-11-12::1-T0-1',)" type="train" depart="82500" line="('de:vvs:vvs-11-12::1-T0-1',)">
        <param key="gtfs.route_name" value="MEX12"/>
        <param key="gtfs.trip_headsign" value="Heilbronn Hauptbahnhof"/>
    </vehicle>
    <vehicle id="('de:vvs:vvs-11-12::1-T0-24',)" route="('de:vvs:vvs-11-12::1-T0-24',)" type="train" depart="47100" line="('de:vvs:vvs-11-12::1-T0-24',)">
        <param key="gtfs.route_name" value="MEX12"/>
        <param key="gtfs.trip_headsign" value="Tübingen Hauptbahnhof"/>
    </vehicle>
    <vehicle id="('de:vvs:vvs-11-12::1-T0-25',)" route="('de:vvs:vvs-11-12::1-T0-1',)" type="train" depart="86160" line="('de:vvs:vvs-11-12::1-T0-1',)">
        <param key="gtfs.route_name" value="MEX12"/>
        <param key="gtfs.trip_headsign" value="Stuttgart Hauptbahnhof (oben)"/>
    </vehicle>
    <vehicle id="('de:vvs:vvs-11-12::1-T0-26',)" route="('de:vvs:vvs-11-12::1-T0-24',)" type="train" depart="54300" line="('de:vvs:vvs-11-12::1-T0-24',)">
        <param key="gtfs.route_name" value="MEX12"/>
        <param key="gtfs.trip_headsign" value="Tübingen Hauptbahnhof"/>
    </vehicle>
    <vehicle id="('de:vvs:vvs-11-12::1-T0-27',)" route="('de:vvs:vvs-11-12::1-T0-24',)" type="train" depart="57780" line="('de:vvs:vvs-11-12::1-T0-24',)">
        <param key="gtfs.route_name" value="MEX12"/>
        <param key="gtfs.trip_headsign" value="Tübingen Hauptbahnhof"/>
    </vehicle>
    <vehicle id="('de:vvs:vvs-11-12::1-T0-28',)" route="('de:vvs:vvs-11-12::1-T0-24',)" type="train" depart="61500" line="('de:vvs:vvs-11-12::1-T0-24',)">
        <param key="gtfs.route_name" value="MEX12"/>
        <param key="gtfs.trip_headsign" value="Tübingen Hauptbahnhof"/>
    </vehicle>
    <vehicle id="('de:vvs:vvs-11-12::1-T0-3',)" route="('de:vvs:vvs-11-12::1-T0-1',)" type="train" depart="42840" line="('de:vvs:vvs-11-12::1-T0-1',)">
        <param key="gtfs.route_name" value="MEX12"/>
        <param key="gtfs.trip_headsign" value="Heilbronn Hauptbahnhof"/>
    </vehicle>
    <vehicle id="('de:vvs:vvs-11-12::1-T0-30',)" route="('de:vvs:vvs-11-12::1-T0-30',)" type="train" depart="68700" line="('de:vvs:vvs-11-12::1-T0-30',)">
        <param key="gtfs.route_name" value="MEX12"/>
        <param key="gtfs.trip_headsign" value="Tübingen Hauptbahnhof"/>
    </vehicle>
    <vehicle id="('de:vvs:vvs-11-12::1-T0-31',)" route="('de:vvs:vvs-11-12::1-T0-24',)" type="train" depart="72180" line="('de:vvs:vvs-11-12::1-T0-24',)">
        <param key="gtfs.route_name" value="MEX12"/>
        <param key="gtfs.trip_headsign" value="Tübingen Hauptbahnhof"/>
    </vehicle>
    <vehicle id="('de:vvs:vvs-11-12::1-T0-4',)" route="('de:vvs:vvs-11-12::1-T0-24',)" type="train" depart="30900" line="('de:vvs:vvs-11-12::1-T0-24',)">
        <param key="gtfs.route_name" value="MEX12"/>
        <param key="gtfs.trip_headsign" value="Tübingen Hauptbahnhof"/>
    </vehicle>
    <vehicle id="('de:vvs:vvs-11-12::1-T0-42',)" route="('de:vvs:vvs-11-12::1-T0-1',)" type="train" depart="57240" line="('de:vvs:vvs-11-12::1-T0-1',)">
        <param key="gtfs.route_name" value="MEX12"/>
        <param key="gtfs.trip_headsign" value="Mosbach-Neckarelz"/>
    </vehicle>
    <vehicle id="('de:vvs:vvs-11-12::1-T0-43',)" route="('de:vvs:vvs-11-12::1-T0-10',)" type="train" depart="60960" line="('de:vvs:vvs-11-12::1-T0-10',)">
        <param key="gtfs.route_name" value="MEX12"/>
        <param key="gtfs.trip_headsign" value="Mosbach-Neckarelz"/>
    </vehicle>
    <vehicle id="('de:vvs:vvs-11-12::1-T0-46',)" route="('de:vvs:vvs-11-12::1-T0-24',)" type="train" depart="36180" line="('de:vvs:vvs-11-12::1-T0-24',)">
        <param key="gtfs.route_name" value="MEX12"/>
        <param key="gtfs.trip_headsign" value="Tübingen Hauptbahnhof"/>
    </vehicle>
    <vehicle id="('de:vvs:vvs-11-12::1-T0-48',)" route="('de:vvs:vvs-11-12::1-T0-24',)" type="train" depart="28980" line="('de:vvs:vvs-11-12::1-T0-24',)">
        <param key="gtfs.route_name" value="MEX12"/>
        <param key="gtfs.trip_headsign" value="Tübingen Hauptbahnhof"/>
    </vehicle>
    <vehicle id="('de:vvs:vvs-11-12::1-T0-5',)" route="('de:vvs:vvs-11-12::1-T0-24',)" type="train" depart="34500" line="('de:vvs:vvs-11-12::1-T0-24',)">
        <param key="gtfs.route_name" value="MEX12"/>
        <param key="gtfs.trip_headsign" value="Tübingen Hauptbahnhof"/>
    </vehicle>
    <vehicle id="('de:vvs:vvs-11-12::1-T0-53',)" route="('de:vvs:vvs-11-12::1-T0-24',)" type="train" depart="39900" line="('de:vvs:vvs-11-12::1-T0-24',)">
        <param key="gtfs.route_name" value="MEX12"/>
        <param key="gtfs.trip_headsign" value="Tübingen Hauptbahnhof"/>
    </vehicle>
    <vehicle id="('de:vvs:vvs-11-12::1-T0-55',)" route="('de:vvs:vvs-11-12::1-T0-24',)" type="train" depart="43380" line="('de:vvs:vvs-11-12::1-T0-24',)">
        <param key="gtfs.route_name" value="MEX12"/>
        <param key="gtfs.trip_headsign" value="Tübingen Hauptbahnhof"/>
    </vehicle>
    <vehicle id="('de:vvs:vvs-11-12::1-T0-57',)" route="('de:vvs:vvs-11-12::1-T0-30',)" type="train" depart="50760" line="('de:vvs:vvs-11-12::1-T0-30',)">
        <param key="gtfs.route_name" value="MEX12"/>
        <param key="gtfs.trip_headsign" value="Tübingen Hauptbahnhof"/>
    </vehicle>
    <vehicle id="('de:vvs:vvs-11-12::1-T0-6',)" route="('de:vvs:vvs-11-12::1-T0-24',)" type="train" depart="75900" line="('de:vvs:vvs-11-12::1-T0-24',)">
        <param key="gtfs.route_name" value="MEX12"/>
        <param key="gtfs.trip_headsign" value="Tübingen Hauptbahnhof"/>
    </vehicle>
    <vehicle id="('de:vvs:vvs-11-12::1-T0-62',)" route="('de:vvs:vvs-11-12::1-T0-24',)" type="train" depart="64980" line="('de:vvs:vvs-11-12::1-T0-24',)">
        <param key="gtfs.route_name" value="MEX12"/>
        <param key="gtfs.trip_headsign" value="Tübingen Hauptbahnhof"/>
    </vehicle>
    <vehicle id="('de:vvs:vvs-11-12::1-T0-7',)" route="('de:vvs:vvs-11-12::1-T0-7',)" type="train" depart="79380" line="('de:vvs:vvs-11-12::1-T0-7',)">
        <param key="gtfs.route_name" value="MEX12"/>
        <param key="gtfs.trip_headsign" value="Tübingen Hauptbahnhof"/>
    </vehicle>
    <vehicle id="('de:vvs:vvs-11-12::1-T0-8',)" route="('de:vvs:vvs-11-12::1-T0-24',)" type="train" depart="82980" line="('de:vvs:vvs-11-12::1-T0-24',)">
        <param key="gtfs.route_name" value="MEX12"/>
        <param key="gtfs.trip_headsign" value="Tübingen Hauptbahnhof"/>
    </vehicle>
    <vehicle id="('de:vvs:vvs-11-12::1-T0-9',)" route="('de:vvs:vvs-11-12::1-T0-10',)" type="train" depart="24780" line="('de:vvs:vvs-11-12::1-T0-10',)">
        <param key="gtfs.route_name" value="MEX12"/>
        <param key="gtfs.trip_headsign" value="Heilbronn Hauptbahnhof"/>
    </vehicle>
    <vehicle id="('de:vvs:vvs-11-16::1-T0-10',)" route="('de:vvs:vvs-11-16::1-T0-10',)" type="train" depart="25500" line="('de:vvs:vvs-11-16::1-T0-10',)">
        <param key="gtfs.route_name" value="MEX16"/>
        <param key="gtfs.trip_headsign" value="Stuttgart Hauptbahnhof (oben)"/>
    </vehicle>
    <vehicle id="('de:vvs:vvs-11-16::1-T0-100',)" route="('de:vvs:vvs-11-16::1-T0-100',)" type="train" depart="58500" line="('de:vvs:vvs-11-16::1-T0-100',)">
        <param key="gtfs.route_name" value="MEX16"/>
        <param key="gtfs.trip_headsign" value="Geislingen (Steige)"/>
    </vehicle>
    <vehicle id="('de:vvs:vvs-11-16::1-T0-101',)" route="('de:vvs:vvs-11-16::1-T0-100',)" type="train" depart="65700" line="('de:vvs:vvs-11-16::1-T0-100',)">
        <param key="gtfs.route_name" value="MEX16"/>
        <param key="gtfs.trip_headsign" value="Geislingen (Steige)"/>
    </vehicle>
    <vehicle id="('de:vvs:vvs-11-16::1-T0-106',)" route="('de:vvs:vvs-11-16::1-T0-100',)" type="train" depart="78840" line="('de:vvs:vvs-11-16::1-T0-100',)">
        <param key="gtfs.route_name" value="MEX16"/>
        <param key="gtfs.trip_headsign" value="Ulm Hauptbahnhof"/>
    </vehicle>
    <vehicle id="('de:vvs:vvs-11-16::1-T0-11',)" route="('de:vvs:vvs-11-16::1-T0-11',)" type="train" depart="21240" line="('de:vvs:vvs-11-16::1-T0-11',)">
        <param key="gtfs.route_name" value="MEX16"/>
        <param key="gtfs.trip_headsign" value="Ulm Hauptbahnhof"/>
    </vehicle>
    <vehicle id="('de:vvs:vvs-11-16::1-T0-110',)" route="('de:vvs:vvs-11-16::1-T0-100',)" type="train" depart="86040" line="('de:vvs:vvs-11-16::1-T0-100',)">
        <param key="gtfs.route_name" value="MEX16"/>
        <param key="gtfs.trip_headsign" value="Geislingen (Steige)"/>
    </vehicle>
    <vehicle id="('de:vvs:vvs-11-16::1-T0-113',)" route="('de:vvs:vvs-11-16::1-T0-10',)" type="train" depart="21900" line="('de:vvs:vvs-11-16::1-T0-10',)">
        <param key="gtfs.route_name" value="MEX16"/>
        <param key="gtfs.trip_headsign" value="Stuttgart Hauptbahnhof (oben)"/>
    </vehicle>
    <vehicle id="('de:vvs:vvs-11-16::1-T0-114',)" route="('de:vvs:vvs-11-16::1-T0-100',)" type="train" depart="75240" line="('de:vvs:vvs-11-16::1-T0-100',)">
        <param key="gtfs.route_name" value="MEX16"/>
        <param key="gtfs.trip_headsign" value="Ulm Hauptbahnhof"/>
    </vehicle>
    <vehicle id="('de:vvs:vvs-11-16::1-T0-116',)" route="('de:vvs:vvs-11-16::1-T0-10',)" type="train" depart="24060" line="('de:vvs:vvs-11-16::1-T0-10',)">
        <param key="gtfs.route_name" value="MEX16"/>
        <param key="gtfs.trip_headsign" value="Stuttgart Hauptbahnhof (oben)"/>
    </vehicle>
    <vehicle id="('de:vvs:vvs-11-16::1-T0-12',)" route="('de:vvs:vvs-11-16::1-T0-10',)" type="train" depart="47100" line="('de:vvs:vvs-11-16::1-T0-10',)">
        <param key="gtfs.route_name" value="MEX16"/>
        <param key="gtfs.trip_headsign" value="Stuttgart Hauptbahnhof (oben)"/>
    </vehicle>
    <vehicle id="('de:vvs:vvs-11-16::1-T0-13',)" route="('de:vvs:vvs-11-16::1-T0-10',)" type="train" depart="32700" line="('de:vvs:vvs-11-16::1-T0-10',)">
        <param key="gtfs.route_name" value="MEX16"/>
        <param key="gtfs.trip_headsign" value="Stuttgart Hauptbahnhof (oben)"/>
    </vehicle>
    <vehicle id="('de:vvs:vvs-11-16::1-T0-14',)" route="('de:vvs:vvs-11-16::1-T0-10',)" type="train" depart="54300" line="('de:vvs:vvs-11-16::1-T0-10',)">
        <param key="gtfs.route_name" value="MEX16"/>
        <param key="gtfs.trip_headsign" value="Stuttgart Hauptbahnhof (oben)"/>
    </vehicle>
    <vehicle id="('de:vvs:vvs-11-16::1-T0-17',)" route="('de:vvs:vvs-11-16::1-T0-100',)" type="train" depart="18780" line="('de:vvs:vvs-11-16::1-T0-100',)">
        <param key="gtfs.route_name" value="MEX16"/>
        <param key="gtfs.trip_headsign" value="Ulm Hauptbahnhof"/>
    </vehicle>
    <vehicle id="('de:vvs:vvs-11-16::1-T0-18',)" route="('de:vvs:vvs-11-16::1-T0-10',)" type="train" depart="31320" line="('de:vvs:vvs-11-16::1-T0-10',)">
        <param key="gtfs.route_name" value="MEX16"/>
        <param key="gtfs.trip_headsign" value="Stuttgart Hauptbahnhof (oben)"/>
    </vehicle>
    <vehicle id="('de:vvs:vvs-11-16::1-T0-19',)" route="('de:vvs:vvs-11-16::1-T0-10',)" type="train" depart="36060" line="('de:vvs:vvs-11-16::1-T0-10',)">
        <param key="gtfs.route_name" value="MEX16"/>
        <param key="gtfs.trip_headsign" value="Stuttgart Hauptbahnhof (oben)"/>
    </vehicle>
    <vehicle id="('de:vvs:vvs-11-16::1-T0-2',)" route="('de:vvs:vvs-11-16::1-T0-10',)" type="train" depart="27600" line="('de:vvs:vvs-11-16::1-T0-10',)">
        <param key="gtfs.route_name" value="MEX16"/>
        <param key="gtfs.trip_headsign" value="Stuttgart Hauptbahnhof (oben)"/>
    </vehicle>
    <vehicle id="('de:vvs:vvs-11-16::1-T0-21',)" route="('de:vvs:vvs-11-16::1-T0-10',)" type="train" depart="39900" line="('de:vvs:vvs-11-16::1-T0-10',)">
        <param key="gtfs.route_name" value="MEX16"/>
        <param key="gtfs.trip_headsign" value="Stuttgart Hauptbahnhof (oben)"/>
    </vehicle>
    <vehicle id="('de:vvs:vvs-11-16::1-T0-23',)" route="('de:vvs:vvs-11-16::1-T0-10',)" type="train" depart="34800" line="('de:vvs:vvs-11-16::1-T0-10',)">
        <param key="gtfs.route_name" value="MEX16"/>
        <param key="gtfs.trip_headsign" value="Stuttgart Hauptbahnhof (oben)"/>
    </vehicle>
    <vehicle id="('de:vvs:vvs-11-16::1-T0-24',)" route="('de:vvs:vvs-11-16::1-T0-10',)" type="train" depart="29100" line="('de:vvs:vvs-11-16::1-T0-10',)">
        <param key="gtfs.route_name" value="MEX16"/>
        <param key="gtfs.trip_headsign" value="Stuttgart Hauptbahnhof (oben)"/>
    </vehicle>
    <vehicle id="('de:vvs:vvs-11-16::1-T0-25',)" route="('de:vvs:vvs-11-16::1-T0-10',)" type="train" depart="43500" line="('de:vvs:vvs-11-16::1-T0-10',)">
        <param key="gtfs.route_name" value="MEX16"/>
        <param key="gtfs.trip_headsign" value="Stuttgart Hauptbahnhof (oben)"/>
    </vehicle>
    <vehicle id="('de:vvs:vvs-11-16::1-T0-26',)" route="('de:vvs:vvs-11-16::1-T0-10',)" type="train" depart="61500" line="('de:vvs:vvs-11-16::1-T0-10',)">
        <param key="gtfs.route_name" value="MEX16"/>
        <param key="gtfs.trip_headsign" value="Stuttgart Hauptbahnhof (oben)"/>
    </vehicle>
    <vehicle id="('de:vvs:vvs-11-16::1-T0-27',)" route="('de:vvs:vvs-11-16::1-T0-10',)" type="train" depart="50700" line="('de:vvs:vvs-11-16::1-T0-10',)">
        <param key="gtfs.route_name" value="MEX16"/>
        <param key="gtfs.trip_headsign" value="Stuttgart Hauptbahnhof (oben)"/>
    </vehicle>
    <vehicle id="('de:vvs:vvs-11-16::1-T0-28',)" route="('de:vvs:vvs-11-16::1-T0-100',)" type="train" depart="22380" line="('de:vvs:vvs-11-16::1-T0-100',)">
        <param key="gtfs.route_name" value="MEX16"/>
        <param key="gtfs.trip_headsign" value="Ulm Hauptbahnhof"/>
    </vehicle>
    <vehicle id="('de:vvs:vvs-11-16::1-T0-29',)" route="('de:vvs:vvs-11-16::1-T0-100',)" type="train" depart="24060" line="('de:vvs:vvs-11-16::1-T0-100',)">
        <param key="gtfs.route_name" value="MEX16"/>
        <param key="gtfs.trip_headsign" value="Ulm Hauptbahnhof"/>
    </vehicle>
    <vehicle id="('de:vvs:vvs-11-16::1-T0-3',)" route="('de:vvs:vvs-11-16::1-T0-10',)" type="train" depart="18240" line="('de:vvs:vvs-11-16::1-T0-10',)">
        <param key="gtfs.route_name" value="MEX16"/>
        <param key="gtfs.trip_headsign" value="Stuttgart Hauptbahnhof (oben)"/>
    </vehicle>
    <vehicle id="('de:vvs:vvs-11-16::1-T0-30',)" route="('de:vvs:vvs-11-16::1-T0-100',)" type="train" depart="89640" line="('de:vvs:vvs-11-16::1-T0-100',)">
        <param key="gtfs.route_name" value="MEX16"/>
        <param key="gtfs.trip_headsign" value="Geislingen (Steige)"/>
    </vehicle>
    <vehicle id="('de:vvs:vvs-11-16::1-T0-31',)" route="('de:vvs:vvs-11-16::1-T0-10',)" type="train" depart="49200" line="('de:vvs:vvs-11-16::1-T0-10',)">
        <param key="gtfs.route_name" value="MEX16"/>
        <param key="gtfs.trip_headsign" value="Stuttgart Hauptbahnhof (oben)"/>
    </vehicle>
    <vehicle id="('de:vvs:vvs-11-16::1-T0-32',)" route="('de:vvs:vvs-11-16::1-T0-10',)" type="train" depart="52680" line="('de:vvs:vvs-11-16::1-T0-10',)">
        <param key="gtfs.route_name" value="MEX16"/>
        <param key="gtfs.trip_headsign" value="Stuttgart Hauptbahnhof (oben)"/>
    </vehicle>
    <vehicle id="('de:vvs:vvs-11-16::1-T0-34',)" route="('de:vvs:vvs-11-16::1-T0-10',)" type="train" depart="75900" line="('de:vvs:vvs-11-16::1-T0-10',)">
        <param key="gtfs.route_name" value="MEX16"/>
        <param key="gtfs.trip_headsign" value="Stuttgart Hauptbahnhof (oben)"/>
    </vehicle>
    <vehicle id="('de:vvs:vvs-11-16::1-T0-35',)" route="('de:vvs:vvs-11-16::1-T0-100',)" type="train" depart="80100" line="('de:vvs:vvs-11-16::1-T0-100',)">
        <param key="gtfs.route_name" value="MEX16"/>
        <param key="gtfs.trip_headsign" value="Geislingen (Steige)"/>
    </vehicle>
    <vehicle id="('de:vvs:vvs-11-16::1-T0-36',)" route="('de:vvs:vvs-11-16::1-T0-10',)" type="train" depart="56400" line="('de:vvs:vvs-11-16::1-T0-10',)">
        <param key="gtfs.route_name" value="MEX16"/>
        <param key="gtfs.trip_headsign" value="Stuttgart Hauptbahnhof (oben)"/>
    </vehicle>
    <vehicle id="('de:vvs:vvs-11-16::1-T0-37',)" route="('de:vvs:vvs-11-16::1-T0-100',)" type="train" depart="87300" line="('de:vvs:vvs-11-16::1-T0-100',)">
        <param key="gtfs.route_name" value="MEX16"/>
        <param key="gtfs.trip_headsign" value="Geislingen (Steige)"/>
    </vehicle>
    <vehicle id="('de:vvs:vvs-11-16::1-T0-38',)" route="('de:vvs:vvs-11-16::1-T0-100',)" type="train" depart="82440" line="('de:vvs:vvs-11-16::1-T0-100',)">
        <param key="gtfs.route_name" value="MEX16"/>
        <param key="gtfs.trip_headsign" value="Ulm Hauptbahnhof"/>
    </vehicle>
    <vehicle id="('de:vvs:vvs-11-16::1-T0-39',)" route="('de:vvs:vvs-11-16::1-T0-100',)" type="train" depart="84000" line="('de:vvs:vvs-11-16::1-T0-100',)">
        <param key="gtfs.route_name" value="MEX16"/>
        <param key="gtfs.trip_headsign" value="Geislingen (Steige)"/>
    </vehicle>
    <vehicle id="('de:vvs:vvs-11-16::1-T0-4',)" route="('de:vvs:vvs-11-16::1-T0-10',)" type="train" depart="20400" line="('de:vvs:vvs-11-16::1-T0-10',)">
        <param key="gtfs.route_name" value="MEX16"/>
        <param key="gtfs.trip_headsign" value="Stuttgart Hauptbahnhof (oben)"/>
    </vehicle>
    <vehicle id="('de:vvs:vvs-11-16::1-T0-40',)" route="('de:vvs:vvs-11-16::1-T0-100',)" type="train" depart="42840" line="('de:vvs:vvs-11-16::1-T0-100',)">
        <param key="gtfs.route_name" value="MEX16"/>
        <param key="gtfs.trip_headsign" value="Ulm Hauptbahnhof"/>
    </vehicle>
    <vehicle id="('de:vvs:vvs-11-16::1-T0-42',)" route="('de:vvs:vvs-11-16::1-T0-10',)" type="train" depart="57840" line="('de:vvs:vvs-11-16::1-T0-10',)">
        <param key="gtfs.route_name" value="MEX16"/>
        <param key="gtfs.trip_headsign" value="Stuttgart Hauptbahnhof (oben)"/>
    </vehicle>
    <vehicle id="('de:vvs:vvs-11-16::1-T0-43',)" route="('de:vvs:vvs-11-16::1-T0-10',)" type="train" depart="59940" line="('de:vvs:vvs-11-16::1-T0-10',)">
        <param key="gtfs.route_name" value="MEX16"/>
        <param key="gtfs.trip_headsign" value="Stuttgart Hauptbahnhof (oben)"/>
    </vehicle>
    <vehicle id="('de:vvs:vvs-11-16::1-T0-44',)" route="('de:vvs:vvs-11-16::1-T0-10',)" type="train" depart="65100" line="('de:vvs:vvs-11-16::1-T0-10',)">
        <param key="gtfs.route_name" value="MEX16"/>
        <param key="gtfs.trip_headsign" value="Stuttgart Hauptbahnhof (oben)"/>
    </vehicle>
    <vehicle id="('de:vvs:vvs-11-16::1-T0-45',)" route="('de:vvs:vvs-11-16::1-T0-10',)" type="train" depart="68640" line="('de:vvs:vvs-11-16::1-T0-10',)">
        <param key="gtfs.route_name" value="MEX16"/>
        <param key="gtfs.trip_headsign" value="Stuttgart Hauptbahnhof (oben)"/>
    </vehicle>
    <vehicle id="('de:vvs:vvs-11-16::1-T0-46',)" route="('de:vvs:vvs-11-16::1-T0-10',)" type="train" depart="79500" line="('de:vvs:vvs-11-16::1-T0-10',)">
        <param key="gtfs.route_name" value="MEX16"/>
        <param key="gtfs.trip_headsign" value="Stuttgart Hauptbahnhof (oben)"/>
    </vehicle>
    <vehicle id="('de:vvs:vvs-11-16::1-T0-47',)" route="('de:vvs:vvs-11-16::1-T0-10',)" type="train" depart="63600" line="('de:vvs:vvs-11-16::1-T0-10',)">
        <param key="gtfs.route_name" value="MEX16"/>
        <param key="gtfs.trip_headsign" value="Stuttgart Hauptbahnhof (oben)"/>
    </vehicle>
    <vehicle id="('de:vvs:vvs-11-16::1-T0-48',)" route="('de:vvs:vvs-11-16::1-T0-10',)" type="train" depart="70800" line="('de:vvs:vvs-11-16::1-T0-10',)">
        <param key="gtfs.route_name" value="MEX16"/>
        <param key="gtfs.trip_headsign" value="Stuttgart Hauptbahnhof (oben)"/>
    </vehicle>
    <vehicle id="('de:vvs:vvs-11-16::1-T0-49',)" route="('de:vvs:vvs-11-16::1-T0-10',)" type="train" depart="83100" line="('de:vvs:vvs-11-16::1-T0-10',)">
        <param key="gtfs.route_name" value="MEX16"/>
        <param key="gtfs.trip_headsign" value="Stuttgart Hauptbahnhof (oben)"/>
    </vehicle>
    <vehicle id="('de:vvs:vvs-11-16::1-T0-5',)" route="('de:vvs:vvs-11-16::1-T0-10',)" type="train" depart="38460" line="('de:vvs:vvs-11-16::1-T0-10',)">
        <param key="gtfs.route_name" value="MEX16"/>
        <param key="gtfs.trip_headsign" value="Stuttgart Hauptbahnhof (oben)"/>
    </vehicle>
    <vehicle id="('de:vvs:vvs-11-16::1-T0-50',)" route="('de:vvs:vvs-11-16::1-T0-10',)" type="train" depart="67140" line="('de:vvs:vvs-11-16::1-T0-10',)">
        <param key="gtfs.route_name" value="MEX16"/>
        <param key="gtfs.trip_headsign" value="Stuttgart Hauptbahnhof (oben)"/>
    </vehicle>
    <vehicle id="('de:vvs:vvs-11-16::1-T0-51',)" route="('de:vvs:vvs-11-16::1-T0-100',)" type="train" depart="26340" line="('de:vvs:vvs-11-16::1-T0-100',)">
        <param key="gtfs.route_name" value="MEX16"/>
        <param key="gtfs.trip_headsign" value="Geislingen (Steige)"/>
    </vehicle>
    <vehicle id="('de:vvs:vvs-11-16::1-T0-52',)" route="('de:vvs:vvs-11-16::1-T0-10',)" type="train" depart="74340" line="('de:vvs:vvs-11-16::1-T0-10',)">
        <param key="gtfs.route_name" value="MEX16"/>
        <param key="gtfs.trip_headsign" value="Stuttgart Hauptbahnhof (oben)"/>
    </vehicle>
    <vehicle id="('de:vvs:vvs-11-16::1-T0-53',)" route="('de:vvs:vvs-11-16::1-T0-10',)" type="train" depart="86700" line="('de:vvs:vvs-11-16::1-T0-10',)">
        <param key="gtfs.route_name" value="MEX16"/>
        <param key="gtfs.trip_headsign" value="Stuttgart Hauptbahnhof (oben)"/>
    </vehicle>
    <vehicle id="('de:vvs:vvs-11-16::1-T0-53.trimmed',)" route="('de:vvs:vvs-11-16::1-T0-10',)" type="train" depart="86700" line="('de:vvs:vvs-11-16::1-T0-10',)">
        <param key="gtfs.route_name" value="MEX16"/>
        <param key="gtfs.trip_headsign" value="Stuttgart Hauptbahnhof (oben)"/>
    </vehicle>
    <vehicle id="('de:vvs:vvs-11-16::1-T0-54',)" route="('de:vvs:vvs-11-16::1-T0-10',)" type="train" depart="90300" line="('de:vvs:vvs-11-16::1-T0-10',)">
        <param key="gtfs.route_name" value="MEX16"/>
        <param key="gtfs.trip_headsign" value="Stuttgart Hauptbahnhof (oben)"/>
    </vehicle>
    <vehicle id="('de:vvs:vvs-11-16::1-T0-54.trimmed',)" route="('de:vvs:vvs-11-16::1-T0-10',)" type="train" depart="90300" line="('de:vvs:vvs-11-16::1-T0-10',)">
        <param key="gtfs.route_name" value="MEX16"/>
        <param key="gtfs.trip_headsign" value="Stuttgart Hauptbahnhof (oben)"/>
    </vehicle>
    <vehicle id="('de:vvs:vvs-11-16::1-T0-56',)" route="('de:vvs:vvs-11-16::1-T0-11',)" type="train" depart="28260" line="('de:vvs:vvs-11-16::1-T0-11',)">
        <param key="gtfs.route_name" value="MEX16"/>
        <param key="gtfs.trip_headsign" value="Ulm Hauptbahnhof"/>
    </vehicle>
    <vehicle id="('de:vvs:vvs-11-16::1-T0-57',)" route="('de:vvs:vvs-11-16::1-T0-100',)" type="train" depart="32040" line="('de:vvs:vvs-11-16::1-T0-100',)">
        <param key="gtfs.route_name" value="MEX16"/>
        <param key="gtfs.trip_headsign" value="Ulm Hauptbahnhof"/>
    </vehicle>
    <vehicle id="('de:vvs:vvs-11-16::1-T0-58',)" route="('de:vvs:vvs-11-16::1-T0-100',)" type="train" depart="35640" line="('de:vvs:vvs-11-16::1-T0-100',)">
        <param key="gtfs.route_name" value="MEX16"/>
        <param key="gtfs.trip_headsign" value="Ulm Hauptbahnhof"/>
    </vehicle>
    <vehicle id="('de:vvs:vvs-11-16::1-T0-6',)" route="('de:vvs:vvs-11-16::1-T0-10',)" type="train" depart="72420" line="('de:vvs:vvs-11-16::1-T0-10',)">
        <param key="gtfs.route_name" value="MEX16"/>
        <param key="gtfs.trip_headsign" value="Stuttgart Hauptbahnhof (oben)"/>
    </vehicle>
    <vehicle id="('de:vvs:vvs-11-16::1-T0-60',)" route="('de:vvs:vvs-11-16::1-T0-10',)" type="train" depart="81540" line="('de:vvs:vvs-11-16::1-T0-10',)">
        <param key="gtfs.route_name" value="MEX16"/>
        <param key="gtfs.trip_headsign" value="Stuttgart Hauptbahnhof (oben)"/>
    </vehicle>
    <vehicle id="('de:vvs:vvs-11-16::1-T0-61',)" route="('de:vvs:vvs-11-16::1-T0-10',)" type="train" depart="78000" line="('de:vvs:vvs-11-16::1-T0-10',)">
        <param key="gtfs.route_name" value="MEX16"/>
        <param key="gtfs.trip_headsign" value="Stuttgart Hauptbahnhof (oben)"/>
    </vehicle>
    <vehicle id="('de:vvs:vvs-11-16::1-T0-65',)" route="('de:vvs:vvs-11-16::1-T0-100',)" type="train" depart="69600" line="('de:vvs:vvs-11-16::1-T0-100',)">
        <param key="gtfs.route_name" value="MEX16"/>
        <param key="gtfs.trip_headsign" value="Geislingen (Steige)"/>
    </vehicle>
    <vehicle id="('de:vvs:vvs-11-16::1-T0-66',)" route="('de:vvs:vvs-11-16::1-T0-10',)" type="train" depart="45720" line="('de:vvs:vvs-11-16::1-T0-10',)">
        <param key="gtfs.route_name" value="MEX16"/>
        <param key="gtfs.trip_headsign" value="Stuttgart Hauptbahnhof (oben)"/>
    </vehicle>
    <vehicle id="('de:vvs:vvs-11-16::1-T0-67',)" route="('de:vvs:vvs-11-16::1-T0-100',)" type="train" depart="29700" line="('de:vvs:vvs-11-16::1-T0-100',)">
        <param key="gtfs.route_name" value="MEX16"/>
        <param key="gtfs.trip_headsign" value="Geislingen (Steige)"/>
    </vehicle>
    <vehicle id="('de:vvs:vvs-11-16::1-T0-68',)" route="('de:vvs:vvs-11-16::1-T0-10',)" type="train" depart="85200" line="('de:vvs:vvs-11-16::1-T0-10',)">
        <param key="gtfs.route_name" value="MEX16"/>
        <param key="gtfs.trip_headsign" value="Stuttgart Hauptbahnhof (oben)"/>
    </vehicle>
    <vehicle id="('de:vvs:vvs-11-16::1-T0-69',)" route="('de:vvs:vvs-11-16::1-T0-100',)" type="train" depart="33600" line="('de:vvs:vvs-11-16::1-T0-100',)">
        <param key="gtfs.route_name" value="MEX16"/>
        <param key="gtfs.trip_headsign" value="Geislingen (Steige)"/>
    </vehicle>
    <vehicle id="('de:vvs:vvs-11-16::1-T0-7',)" route="('de:vvs:vvs-11-16::1-T0-10',)" type="train" depart="42000" line="('de:vvs:vvs-11-16::1-T0-10',)">
        <param key="gtfs.route_name" value="MEX16"/>
        <param key="gtfs.trip_headsign" value="Stuttgart Hauptbahnhof (oben)"/>
    </vehicle>
    <vehicle id="('de:vvs:vvs-11-16::1-T0-70',)" route="('de:vvs:vvs-11-16::1-T0-100',)" type="train" depart="17640" line="('de:vvs:vvs-11-16::1-T0-100',)">
        <param key="gtfs.route_name" value="MEX16"/>
        <param key="gtfs.trip_headsign" value="Ulm Hauptbahnhof"/>
    </vehicle>
    <vehicle id="('de:vvs:vvs-11-16::1-T0-71',)" route="('de:vvs:vvs-11-16::1-T0-100',)" type="train" depart="72900" line="('de:vvs:vvs-11-16::1-T0-100',)">