<routes>
  <person id="Fake" depart="0.00">
    <personTrip from="-28674720" to="23312959#2" line="ANY" modes="public"/>
    <personTrip from="-28674720" to="23312959#2" line="ANY" modes="public"/>
    <personTrip from="23312959#2" to="31626945#0" line="ANY" vTypes="motorcycle"/>
    <personTrip from="23312959#2" to="31626945#0" line="ANY" vTypes="motorcycle"/>
    <personTrip from="31626945#0" to="23312959#2" line="ANY" modes="public"/>
    <personTrip from="31626945#0" to="23312959#2" line="ANY" modes="public"/>
    <personTrip from="23312959#2" to="-28674720" line="ANY" vTypes="bicycle"/>
    <personTrip from="23312959#2" to="-28674720" line="ANY" vTypes="bicycle"/>
    <personTrip from="-28674720" to="23312959#2" line="ANY" modes="public"/>
    <personTrip from="-28674720" to="23312959#2" line="ANY" modes="public"/>
    <personTrip from="23312959#2" to="31626945#0" line="ANY" vTypes="motorcycle"/>
    <personTrip from="23312959#2" to="31626945#0" line="ANY" vTypes="motorcycle"/>
    <personTrip from="31626945#0" to="23312959#2" line="ANY" modes="public"/>
    <personTrip from="31626945#0" to="23312959#2" line="ANY" modes="public"/>
    <personTrip from="23312959#2" to="-28674720" line="ANY" modes="public"/>
    <personTrip from="23312959#2" to="-28674720" line="ANY" modes="public"/>
    <personTrip from="-28674720" to="283020977#0" line="ANY" modes="public"/>
    <personTrip from="-28674720" to="283020977#0" line="ANY" modes="public"/>
    <personTrip from="283020977#0" to="-28674720" line="ANY" modes="public"/>
    <personTrip from="283020977#0" to="-28674720" line="ANY" modes="public"/>
    <personTrip from="-28674720" to="23312959#2" line="ANY" vTypes="bicycle"/>
    <personTrip from="-28674720" to="23312959#2" line="ANY" vTypes="bicycle"/>
    <personTrip from="23312959#2" to="363859775#4" line="ANY" modes="public"/>
    <personTrip from="23312959#2" to="363859775#4" line="ANY" modes="public"/>
    <personTrip from="363859775#4" to="-28674720" line="ANY" vTypes="motorcycle"/>
    <personTrip from="363859775#4" to="-28674720" line="ANY" vTypes="motorcycle"/>
    <personTrip from="-28674720" to="108866516#0" line="ANY" vTypes="passenger"/>
    <personTrip from="-28674720" to="108866516#0" line="ANY" vTypes="passenger"/>
    <personTrip from="108866516#0" to="-28674720" line="ANY" vTypes="passenger"/>
    <personTrip from="108866516#0" to="-28674720" line="ANY" vTypes="passenger"/>
    <personTrip from="-28674720" to="31626945#0" line="ANY" vTypes="passenger"/>
    <personTrip from="-28674720" to="31626945#0" line="ANY" vTypes="passenger"/>
    <personTrip from="31626945#0" to="-28674720" line="ANY" modes="public"/>
    <personTrip from="31626945#0" to="-28674720" line="ANY" modes="public"/>
    <personTrip from="-28674720" to="23516431#4" line="ANY" vTypes="motorcycle"/>
    <personTrip from="-28674720" to="23516431#4" line="ANY" vTypes="motorcycle"/>
    <personTrip from="23516431#4" to="31626945#0" line="ANY" vTypes="motorcycle"/>
    <personTrip from="23516431#4" to="31626945#0" line="ANY" vTypes="motorcycle"/>
    <personTrip from="31626945#0" to="-28674720" line="ANY" modes="public"/>
    <personTrip from="31626945#0" to="-28674720" line="ANY" modes="public"/>
    <personTrip from="-28674720" to="159822908#2" line="ANY" modes="public"/>
    <personTrip from="-28674720" to="159822908#2" line="ANY" modes="public"/>
    <personTrip from="159822908#2" to="-28674720" line="ANY" modes="public"/>
    <personTrip from="159822908#2" to="-28674720" line="ANY" modes="public"/>
    <personTrip from="-28674720" to="23516431#4" line="ANY" vTypes="bicycle"/>
    <personTrip from="-28674720" to="23516431#4" line="ANY" vTypes="bicycle"/>
    <personTrip from="23516431#4" to="-28674720" line="ANY" vTypes="motorcycle"/>
    <personTrip from="23516431#4" to="-28674720" line="ANY" vTypes="motorcycle"/>
    <personTrip from="-28674720" to="283020977#0" line="ANY" modes="public"/>
    <personTrip from="-28674720" to="283020977#0" line="ANY" modes="public"/>
    <personTrip from="283020977#0" to="-28674720" line="ANY" modes="public"/>
    <personTrip from="283020977#0" to="-28674720" line="ANY" modes="public"/>
    <personTrip from="-28674720" to="23312959#2" line="ANY" vTypes="bicycle"/>
    <personTrip from="-28674720" to="23312959#2" line="ANY" vTypes="bicycle"/>
    <personTrip from="23312959#2" to="31626945#0" line="ANY" modes="public"/>
    <personTrip from="23312959#2" to="31626945#0" line="ANY" modes="public"/>
    <personTrip from="31626945#0" to="23312959#2" line="ANY" modes="public"/>
    <personTrip from="31626945#0" to="23312959#2" line="ANY" modes="public"/>
    <personTrip from="23312959#2" to="-28674720" line="ANY" modes="public"/>
    <personTrip from="23312959#2" to="-28674720" line="ANY" modes="public"/>
  </person>
  <person id="Check" depart="0.00">
    <personTrip from="80873842#0" to="-242488274" line="ANY" vTypes="bicycle"/>
    <stop duration="33349" actType="singing"/>
    <personTrip from="80873842#0" to="-242488274" line="ANY" vTypes="bicycle"/>
    <personTrip from="-242488274" to="170499420#0" line="ANY" modes="public"/>
    <personTrip from="170499420#0" to="-34883382#1" line="ANY" vTypes="passenger"/>
    <stop duration="1476" actType="singing"/>
    <personTrip from="170499420#0" to="-34883382#1" line="ANY" vTypes="passenger"/>
    <personTrip from="-34883382#1" to="29552140#1" line="ANY" vTypes="passenger"/>
    <stop duration="8895" actType="singing"/>
    <personTrip from="-34883382#1" to="29552140#1" line="ANY" vTypes="passenger"/>
    <personTrip from="29552140#1" to="-242488274" line="ANY" modes="public"/>
    <stop duration="33459" actType="singing"/>
    <personTrip from="29552140#1" to="-242488274" line="ANY" modes="public"/>
    <personTrip from="-242488274" to="-34883382#1" line="ANY" vTypes="bicycle"/>
    <stop duration="824" actType="singing"/>
    <personTrip from="-242488274" to="-34883382#1" line="ANY" vTypes="bicycle"/>
  </person>
</routes>
