<routes>
  <person id="p0" depart="0.00">
    <personTrip from="32808778#0" to="-24619971#0" line="ANY" modes="public"/>
    <stop duration="8663" actType="singing"/>
    <personTrip from="391867834#1" to="24508853#3" line="ANY" modes="public"/>
    <personTrip from="24508853#3" to="-24619971#0" line="ANY" vTypes="passenger"/>
    <stop duration="7061" actType="singing"/>
    <personTrip from="-24619971#0" to="391867834#1" line="ANY" modes="public"/>
    <stop duration="838" actType="singing"/>
  </person>
  <person id="p3" depart="0.00">
    <personTrip from="-242488283" to="31155481#0" line="ANY" vTypes="bicycle"/>
    <stop duration="5051" actType="singing"/>
    <personTrip from="31155481#0" to="-242488283" line="ANY" vTypes="passenger"/>
    <stop duration="26749" actType="singing"/>
    <personTrip from="31155481#0" to="23032787#7" line="ANY" vTypes="bicycle"/>
    <stop duration="1113" actType="singing"/>
  </person>
  <person id="p6" depart="0.00">
    <personTrip from="32808778#0" to="317430996" line="ANY" modes="public"/>
    <stop duration="13735" actType="singing"/>
    <personTrip from="317430996" to="32808778#0" line="ANY" modes="public"/>
    <stop duration="4826" actType="singing"/>
    <personTrip from="32808778#0" to="317430996" line="ANY" vTypes="bicycle"/>
    <stop duration="3662" actType="singing"/>
  </person>
  <person id="p7" depart="0.00">
    <personTrip from="-96422710#1" to="31155476#6" line="ANY" modes="public"/>
    <stop duration="1147" actType="singing"/>
    <personTrip from="-68552415#5" to="-96422710#1" line="ANY" modes="public"/>
    <stop duration="19074" actType="singing"/>
    <personTrip from="31155481#0" to="-68552415#5" line="ANY" vTypes="passenger"/>
    <stop duration="7589" actType="singing"/>
  </person>
  <person id="p1" depart="0.00">
    <personTrip from="27246564" to="559554521" line="ANY" vTypes="passenger"/>
    <stop duration="4062" actType="singing"/>
    <personTrip from="559554521" to="27246564" line="ANY" vTypes="passenger"/>
    <stop duration="30421" actType="singing"/>
    <personTrip from="31155481#0" to="559554521" line="ANY" vTypes="motorcycle"/>
    <stop duration="11629" actType="singing"/>
  </person>
  <person id="p8" depart="0.00">
    <personTrip from="31155481#0" to="-1135390858" line="ANY" modes="public"/>
    <stop duration="220" actType="singing"/>
    <personTrip from="-1135390858" to="-391912493" line="ANY" modes="public"/>
    <personTrip from="-391912493" to="-391912493" line="ANY" vTypes="motorcycle"/>
    <stop duration="804" actType="singing"/>
    <personTrip from="-391912493" to="-24619971#0" line="ANY" modes="public"/>
    <stop duration="6683" actType="singing"/>
  </person>
  <person id="p9" depart="0.00">
    <personTrip from="32808778#0" to="-30998701#1" line="ANY" vTypes="bicycle"/>
    <stop duration="695" actType="singing"/>
    <personTrip from="559554521" to="32808778#0" line="ANY" modes="public"/>
    <stop duration="6316" actType="singing"/>
    <personTrip from="32808778#0" to="559554521" line="ANY" vTypes="bicycle"/>
    <stop duration="9258" actType="singing"/>
  </person>
  <person id="p4" depart="0.00">
    <personTrip from="70531936#2" to="-168353189" line="ANY" modes="public"/>
    <personTrip from="-168353189" to="-168353189" line="ANY" vTypes="bicycle"/>
    <stop duration="28044" actType="singing"/>
    <personTrip from="-168353189" to="32808778#0" line="ANY" modes="public"/>
    <stop duration="5839" actType="singing"/>
    <personTrip from="32808778#0" to="70531936#2" line="ANY" modes="public"/>
    <stop duration="1126" actType="singing"/>
  </person>
  <person id="p2" depart="0.00">
    <personTrip from="31155481#0" to="26363105#1" line="ANY" vTypes="passenger"/>
    <stop duration="658" actType="singing"/>
    <personTrip from="952667969" to="31155481#0" line="ANY" vTypes="bicycle"/>
    <stop duration="5022" actType="singing"/>
    <personTrip from="31155481#0" to="952667969" line="ANY" modes="public"/>
    <stop duration="35252" actType="singing"/>
  </person>
  <person id="p5" depart="0.00">
    <personTrip from="155219624#0" to="-68552415#5" line="ANY" modes="public"/>
    <stop duration="9047" actType="singing"/>
    <personTrip from="32808778#0" to="155219624#0" line="ANY" modes="public"/>
    <stop duration="18330" actType="singing"/>
    <personTrip from="-68552415#5" to="-391912493" line="ANY" modes="public"/>
    <stop duration="1043" actType="singing"/>
  </person>
</routes>
