<?xml version="1.0" encoding="UTF-8"?>

<!-- generated on 2024-03-13 17:30:52 by Eclipse SUMO duarouter Version 1.19.0
<configuration xmlns:xsi="http://www.w3.org/2001/XMLSchema-instance" xsi:noNamespaceSchemaLocation="http://sumo.dlr.de/xsd/duarouterConfiguration.xsd">

    <input>
        <net-file value="crr.net.xml"/>
        <additional-files value="osm_polygons.add.xml, basic.vType.xml, additional.xml, data.rou.xml"/>
        <route-files value="flows.rou.xml"/>
    </input>

    <output>
        <output-file value="data_fix.rou.xml"/>
    </output>

</configuration>
-->

<routes xmlns:xsi="http://www.w3.org/2001/XMLSchema-instance" xsi:noNamespaceSchemaLocation="http://sumo.dlr.de/xsd/routes_file.xsd"/>
