<routes>
  <person id="p0" depart="0.00">
    <personTrip from="317594431#0" to="-30998715" line="ANY" modes="public"/>
    <personTrip from="-30998715" to="42229185" line="ANY" vTypes="passenger"/>
    <stop duration="13082" edge="42229185" actType="singing"/>
  </person>
  <person id="p1" depart="0.00">
    <personTrip from="317594431#0" to="149650133#0" line="ANY" modes="public"/>
    <stop duration="2210" edge="149650133#0" actType="singing"/>
  </person>
  <person id="p2" depart="0.00">
    <personTrip from="-23059671#0" to="823051186#4" line="ANY" modes="public"/>
    <stop duration="2302" edge="823051186#4" actType="singing"/>
  </person>
  <person id="p3" depart="0.00">
    <personTrip from="317594431#0" to="113684008#0" line="ANY" modes="public"/>
    <personTrip from="113684008#0" to="244297632" line="ANY" vTypes="bicycle"/>
    <stop duration="1512" edge="244297632" actType="singing"/>
  </person>
  <person id="p4" depart="0.00">
    <personTrip from="-23059671#0" to="692560997" line="ANY" modes="public"/>
    <stop duration="1892" edge="692560997" actType="singing"/>
  </person>
  <person id="p5" depart="0.00">
    <personTrip from="317594431#0" to="-30998715" line="ANY" modes="public"/>
    <personTrip from="-30998715" to="765613426" line="ANY" vTypes="motorcycle"/>
    <stop duration="16176" edge="765613426" actType="singing"/>
  </person>
  <person id="p6" depart="0.00">
    <personTrip from="317594431#0" to="106674678" line="ANY" modes="public"/>
    <stop duration="11761" edge="106674678" actType="singing"/>
  </person>
  <person id="p7" depart="0.00">
    <personTrip from="-23059671#0" to="4807837#0" line="ANY" vTypes="motorcycle"/>
    <stop duration="8460" edge="4807837#0" actType="singing"/>
  </person>
  <person id="p8" depart="0.00">
    <personTrip from="-23059671#0" to="-848357122#1" line="ANY" modes="public"/>
    <stop duration="1530" edge="-848357122#1" actType="singing"/>
  </person>
  <person id="p9" depart="0.00">
    <personTrip from="317594431#0" to="23471064#1" line="ANY" modes="public"/>
    <stop duration="10167" edge="23471064#1" actType="singing"/>
  </person>
</routes>
