<?xml version="1.0" ?>
<routes>
  <vType id="passenger" vClass="passenger"/>
  <vType id="bicycle" vClass="bicycle"/>
  <vType id="motorcycle" vClass="motorcycle"/>
  <person id="p0" depart="0.00">
    <personTrip from="-26249172#1" to="887382265#3" line="ANY" modes="public"/>
    <stop duration="10223" actType="singing"/>
    <personTrip from="887382265#3" to="281970534#1" line="ANY" modes="public"/>
    <stop duration="1024" actType="singing"/>
    <personTrip from="281970534#1" to="887382265#3" line="ANY" modes="public"/>
    <stop duration="6434" actType="singing"/>
    <personTrip from="887382265#3" to="-261543560#1" line="ANY" modes="public"/>
    <personTrip from="-261543560#1" to="-25073400#4" line="ANY" vTypes="bicycle"/>
    <stop duration="31007" actType="singing"/>
  </person>
  <person id="p3" depart="0.00">
    <personTrip from="692560997" to="-102848475#0" line="ANY" vTypes="passenger"/>
    <stop duration="14203" actType="singing"/>
    <personTrip from="-102848475#0" to="692560997" line="ANY" vTypes="motorcycle"/>
    <stop duration="5595" actType="singing"/>
    <personTrip from="692560997" to="401038000#1" line="ANY" modes="public"/>
    <personTrip from="401038000#1" to="460942122#2" line="ANY" vTypes="bicycle"/>
    <stop duration="20524" actType="singing"/>
    <personTrip from="460942122#2" to="-102848475#0" line="ANY" modes="public"/>
    <stop duration="11828" actType="singing"/>
  </person>
  <person id="p1" depart="0.00">
    <personTrip from="23528397#0" to="688229195" line="ANY" vTypes="motorcycle"/>
    <stop duration="1124" actType="singing"/>
    <personTrip from="688229195" to="23151398" line="ANY" modes="public"/>
    <stop duration="5717" actType="singing"/>
    <personTrip from="23151398" to="787951054" line="ANY" modes="public"/>
    <stop duration="32249" actType="singing"/>
    <personTrip from="787951054" to="23528397#0" line="ANY" modes="public"/>
    <stop duration="5883" actType="singing"/>
  </person>
  <person id="p7" depart="0.00">
    <personTrip from="23528406#2" to="-53556045#0" line="ANY" vTypes="motorcycle"/>
    <stop duration="18914" actType="singing"/>
    <personTrip from="-53556045#0" to="269782614#2" line="ANY" modes="public"/>
    <stop duration="628" actType="singing"/>
    <personTrip from="269782614#2" to="-53556045#0" line="ANY" modes="public"/>
    <stop duration="20591" actType="singing"/>
    <personTrip from="-53556045#0" to="261543555" line="ANY" modes="public"/>
    <personTrip from="261543555" to="-53564617#5" line="ANY" vTypes="motorcycle"/>
    <stop duration="7361" actType="singing"/>
  </person>
  <person id="p4" depart="0.00">
    <personTrip from="887382263#4" to="-482520404#2" line="ANY" modes="public"/>
    <personTrip from="-482520404#2" to="-482520404#2" line="ANY" vTypes="bicycle"/>
    <stop duration="671" actType="singing"/>
    <personTrip from="-482520404#2" to="887382263#4" line="ANY" vTypes="bicycle"/>
    <stop duration="5571" actType="singing"/>
    <personTrip from="887382263#4" to="303259051" line="ANY" modes="public"/>
    <personTrip from="303259051" to="303259051" line="ANY" vTypes="bicycle"/>
    <stop duration="6215" actType="singing"/>
    <personTrip from="303259051" to="-482520404#2" line="ANY" modes="public"/>
    <stop duration="861" actType="singing"/>
  </person>
  <person id="p8" depart="0.00">
    <personTrip from="688229195" to="231912405#0" line="ANY" modes="public"/>
    <stop duration="951" actType="singing"/>
    <personTrip from="231912405#0" to="1047657423" line="ANY" modes="public"/>
    <stop duration="10496" actType="singing"/>
    <personTrip from="1047657423" to="35478511#1" line="ANY" modes="public"/>
    <stop duration="372" actType="singing"/>
    <personTrip from="35478511#1" to="688229195" line="ANY" vTypes="motorcycle"/>
    <stop duration="6316" actType="singing"/>
  </person>
  <person id="p2" depart="0.00">
    <personTrip from="-41949230#1" to="23471130#2" line="ANY" vTypes="bicycle"/>
    <stop duration="12183" actType="singing"/>
    <personTrip from="23471130#2" to="13861895" line="ANY" modes="public"/>
    <personTrip from="13861895" to="-23320720#8" line="ANY" vTypes="bicycle"/>
    <stop duration="631" actType="singing"/>
    <personTrip from="-23320720#8" to="-41949230#1" line="ANY" vTypes="passenger"/>
    <stop duration="7435" actType="singing"/>
    <personTrip from="-41949230#1" to="317430977" line="ANY" vTypes="bicycle"/>
    <stop duration="33528" actType="singing"/>
  </person>
  <person id="p9" depart="0.00">
    <personTrip from="-23471083#3" to="331752492#1" line="ANY" modes="public"/>
    <stop duration="6192" actType="singing"/>
    <personTrip from="331752492#1" to="-23471083#3" line="ANY" modes="public"/>
    <stop duration="7609" actType="singing"/>
    <personTrip from="-23471083#3" to="-37071138#2" line="ANY" modes="public"/>
    <personTrip from="-37071138#2" to="-37071138#2" line="ANY" vTypes="passenger"/>
    <stop duration="733" actType="singing"/>
    <personTrip from="-37071138#2" to="331752492#1" line="ANY" modes="public"/>
    <stop duration="3738" actType="singing"/>
  </person>
  <person id="p5" depart="0.00">
    <personTrip from="-130274322" to="36774698" line="ANY" modes="public"/>
    <stop duration="798" actType="singing"/>
    <personTrip from="36774698" to="-130274322" line="ANY" modes="public"/>
    <stop duration="8233" actType="singing"/>
    <personTrip from="-130274322" to="36774698" line="ANY" modes="public"/>
    <stop duration="706" actType="singing"/>
    <personTrip from="36774698" to="-38585496#1" line="ANY" modes="public"/>
    <personTrip from="-38585496#1" to="-130274322" line="ANY" vTypes="passenger"/>
    <stop duration="7395" actType="singing"/>
  </person>
  <person id="p6" depart="0.00">
    <personTrip from="216941674#0" to="-148844981" line="ANY" modes="public"/>
    <stop duration="9155" actType="singing"/>
    <personTrip from="-148844981" to="216941674#0" line="ANY" modes="public"/>
    <stop duration="7716" actType="singing"/>
    <personTrip from="216941674#0" to="-45524884#3" line="ANY" modes="public"/>
    <stop duration="15745" actType="singing"/>
    <personTrip from="-45524884#3" to="216941674#0" line="ANY" vTypes="bicycle"/>
    <stop duration="4989" actType="singing"/>
  </person>
</routes>
