<?xml version="1.0" ?>
<routes>
  <vType id="passenger" vClass="passenger"/>
  <vType id="bicycle" vClass="bicycle"/>
  <vType id="motorcycle" vClass="motorcycle"/>
  <person id="Mellisent" depart="0.00">
    <personTrip from="24608272#1" to="1167625427" line="ANY" modes="public"/>
    <stop duration="716" actType="singing"/>
    <personTrip from="1167625427" to="25708890#1" line="ANY" modes="public"/>
    <personTrip from="25708890#1" to="823051186#3" line="ANY" vTypes="motorcycle"/>
    <stop duration="31596" actType="singing"/>
    <personTrip from="823051186#3" to="23415819" line="ANY" modes="public"/>
    <personTrip from="23415819" to="42326222" line="ANY" vTypes="motorcycle"/>
    <stop duration="10611" actType="singing"/>
    <personTrip from="42326222" to="1167625427" line="ANY" modes="public"/>
    <stop duration="1133" actType="singing"/>
    <personTrip from="1167625427" to="42326222" line="ANY" modes="public"/>
    <stop duration="3754" actType="singing"/>
    <personTrip from="42326222" to="24608272#1" line="ANY" modes="public"/>
    <stop duration="43144" actType="singing"/>
  </person>
  <person id="Farrand" depart="0.00">
    <personTrip from="23032786#1" to="32133767#0" line="ANY" vTypes="motorcycle"/>
    <stop duration="1144" actType="singing"/>
    <personTrip from="32133767#0" to="-4807837#2" line="ANY" modes="public"/>
    <personTrip from="-4807837#2" to="-183419653#1" line="ANY" vTypes="motorcycle"/>
    <stop duration="12760" actType="singing"/>
    <personTrip from="-183419653#1" to="32133767#0" line="ANY" modes="public"/>
    <stop duration="735" actType="singing"/>
    <personTrip from="32133767#0" to="23032786#1" line="ANY" modes="public"/>
    <stop duration="42269" actType="singing"/>
    <personTrip from="23032786#1" to="-183419653#1" line="ANY" vTypes="bicycle"/>
    <stop duration="8090" actType="singing"/>
    <personTrip from="-183419653#1" to="-183419042#7" line="ANY" modes="public"/>
    <personTrip from="-183419042#7" to="32133767#0" line="ANY" vTypes="motorcycle"/>
    <stop duration="1174" actType="singing"/>
  </person>
  <person id="Uriah" depart="0.00">
    <personTrip from="474485739" to="173309328#0" line="ANY" vTypes="bicycle"/>
    <stop duration="35599" actType="singing"/>
    <personTrip from="173309328#0" to="474485739" line="ANY" vTypes="motorcycle"/>
    <stop duration="42769" actType="singing"/>
    <personTrip from="474485739" to="173309328#0" line="ANY" modes="public"/>
    <stop duration="34388" actType="singing"/>
    <personTrip from="173309328#0" to="474485739" line="ANY" modes="public"/>
    <stop duration="42228" actType="singing"/>
    <personTrip from="474485739" to="93353179#1" line="ANY" modes="public"/>
    <stop duration="9741" actType="singing"/>
    <personTrip from="93353179#1" to="173309328#0" line="ANY" vTypes="bicycle"/>
    <stop duration="31051" actType="singing"/>
  </person>
  <person id="Ingamar" depart="0.00">
    <personTrip from="258841468#3" to="-37181837#1" line="ANY" modes="public"/>
    <stop duration="14601" actType="singing"/>
    <personTrip from="-37181837#1" to="258841468#3" line="ANY" modes="public"/>
    <stop duration="42828" actType="singing"/>
    <personTrip from="258841468#3" to="-37181837#1" line="ANY" vTypes="passenger"/>
    <stop duration="15744" actType="singing"/>
    <personTrip from="-37181837#1" to="317594345#15" line="ANY" modes="public"/>
    <stop duration="8764" actType="singing"/>
    <personTrip from="317594345#15" to="-37181837#1" line="ANY" modes="public"/>
    <stop duration="19617" actType="singing"/>
    <personTrip from="-37181837#1" to="317594345#15" line="ANY" modes="public"/>
    <stop duration="5615" actType="singing"/>
  </person>
  <person id="Amberly" depart="0.00">
    <personTrip from="-31424596#0" to="548453315#1" line="ANY" modes="public"/>
    <stop duration="12249" actType="singing"/>
    <personTrip from="548453315#1" to="-26686029#0" line="ANY" modes="public"/>
    <stop duration="700" actType="singing"/>
    <personTrip from="-26686029#0" to="548453315#1" line="ANY" vTypes="motorcycle"/>
    <stop duration="18304" actType="singing"/>
    <personTrip from="548453315#1" to="200190588#0" line="ANY" modes="public"/>
    <personTrip from="200190588#0" to="167641322#2" line="ANY" vTypes="bicycle"/>
    <stop duration="8947" actType="singing"/>
    <personTrip from="167641322#2" to="24994574#0" line="ANY" modes="public"/>
    <personTrip from="24994574#0" to="548453315#1" line="ANY" vTypes="passenger"/>
    <stop duration="12274" actType="singing"/>
    <personTrip from="548453315#1" to="167641322#2" line="ANY" modes="public"/>
    <stop duration="12252" actType="singing"/>
  </person>
  <person id="Terza" depart="0.00">
    <personTrip from="23736861#1" to="758588895#8" line="ANY" vTypes="passenger"/>
    <stop duration="995" actType="singing"/>
    <personTrip from="758588895#8" to="154230476" line="ANY" modes="public"/>
    <personTrip from="154230476" to="-911891316" line="ANY" vTypes="motorcycle"/>
    <stop duration="15873" actType="singing"/>
    <personTrip from="-911891316" to="23736861#1" line="ANY" modes="public"/>
    <stop duration="42374" actType="singing"/>
    <personTrip from="23736861#1" to="-911891316" line="ANY" modes="public"/>
    <stop duration="16913" actType="singing"/>
    <personTrip from="-911891316" to="23736861#1" line="ANY" modes="public"/>
    <stop duration="42056" actType="singing"/>
    <personTrip from="23736861#1" to="-911891316" line="ANY" vTypes="motorcycle"/>
    <stop duration="19114" actType="singing"/>
  </person>
  <person id="Geraldine" depart="0.00">
    <personTrip from="-92941927#2" to="-124929515" line="ANY" modes="public"/>
    <stop duration="12326" actType="singing"/>
    <personTrip from="-124929515" to="-70531942#0" line="ANY" modes="public"/>
    <stop duration="20522" actType="singing"/>
    <personTrip from="-70531942#0" to="-92941927#2" line="ANY" vTypes="motorcycle"/>
    <stop duration="42374" actType="singing"/>
    <personTrip from="-92941927#2" to="-124929515" line="ANY" modes="public"/>
    <stop duration="7092" actType="singing"/>
    <personTrip from="-124929515" to="-92941927#2" line="ANY" modes="public"/>
    <stop duration="42632" actType="singing"/>
    <personTrip from="-92941927#2" to="154230476" line="ANY" modes="public"/>
    <personTrip from="154230476" to="-124929515" line="ANY" vTypes="motorcycle"/>
    <stop duration="10156" actType="singing"/>
  </person>
  <person id="Laurianne" depart="0.00">
    <personTrip from="47241807" to="292876199#4" line="ANY" modes="public"/>
    <stop duration="15764" actType="singing"/>
    <personTrip from="292876199#4" to="47241807" line="ANY" modes="public"/>
    <stop duration="42526" actType="singing"/>
    <personTrip from="47241807" to="224106216" line="ANY" modes="public"/>
    <personTrip from="224106216" to="-280102094" line="ANY" vTypes="passenger"/>
    <stop duration="5458" actType="singing"/>
    <personTrip from="-280102094" to="280102089#0" line="ANY" modes="public"/>
    <personTrip from="280102089#0" to="943633738" line="ANY" vTypes="motorcycle"/>
    <stop duration="711" actType="singing"/>
    <personTrip from="943633738" to="292876199#4" line="ANY" vTypes="motorcycle"/>
    <stop duration="16679" actType="singing"/>
    <personTrip from="292876199#4" to="-280102094" line="ANY" vTypes="bicycle"/>
    <stop duration="8551" actType="singing"/>
  </person>
  <person id="Claudina" depart="0.00">
    <personTrip from="404790256#1" to="88289463#4" line="ANY" modes="public"/>
    <stop duration="12021" actType="singing"/>
    <personTrip from="88289463#4" to="404790256#1" line="ANY" vTypes="passenger"/>
    <stop duration="42869" actType="singing"/>
    <personTrip from="404790256#1" to="327930724" line="ANY" modes="public"/>
    <stop duration="813" actType="singing"/>
    <personTrip from="327930724" to="23312962#3" line="ANY" modes="public"/>
    <personTrip from="23312962#3" to="29036694#1" line="ANY" vTypes="bicycle"/>
    <stop duration="18427" actType="singing"/>
    <personTrip from="29036694#1" to="16361892#3" line="ANY" modes="public"/>
    <personTrip from="16361892#3" to="327930724" line="ANY" vTypes="passenger"/>
    <stop duration="952" actType="singing"/>
    <personTrip from="327930724" to="88289463#4" line="ANY" modes="public"/>
    <stop duration="6268" actType="singing"/>
  </person>
  <person id="Haley" depart="0.00">
    <personTrip from="390216941" to="53564622" line="ANY" modes="public"/>
    <stop duration="981" actType="singing"/>
    <personTrip from="53564622" to="-23093184" line="ANY" modes="public"/>
    <stop duration="8848" actType="singing"/>
    <personTrip from="-23093184" to="53564622" line="ANY" modes="public"/>
    <stop duration="1183" actType="singing"/>
    <personTrip from="53564622" to="390216941" line="ANY" modes="public"/>
    <stop duration="42176" actType="singing"/>
    <personTrip from="390216941" to="53564622" line="ANY" vTypes="passenger"/>
    <stop duration="995" actType="singing"/>
    <personTrip from="53564622" to="390216941" line="ANY" vTypes="bicycle"/>
    <stop duration="42185" actType="singing"/>
  </person>
  <person id="Katharyn" depart="0.00">
    <personTrip from="317594533" to="23275175#5" line="ANY" modes="public"/>
    <stop duration="5599" actType="singing"/>
    <personTrip from="23275175#5" to="317594533" line="ANY" modes="public"/>
    <stop duration="42242" actType="singing"/>
    <personTrip from="317594533" to="317594345#10" line="ANY" modes="public"/>
    <personTrip from="317594345#10" to="-26249194#1" line="ANY" vTypes="motorcycle"/>
    <stop duration="8513" actType="singing"/>
    <personTrip from="-26249194#1" to="-25752783#1" line="ANY" modes="public"/>
    <stop duration="1134" actType="singing"/>
    <personTrip from="-25752783#1" to="-26249194#1" line="ANY" modes="public"/>
    <stop duration="4836" actType="singing"/>
    <personTrip from="-26249194#1" to="317594533" line="ANY" vTypes="passenger"/>
    <stop duration="42630" actType="singing"/>
  </person>
  <person id="Ludwig" depart="0.00">
    <personTrip from="231912406#1" to="-269782616#2" line="ANY" modes="public"/>
    <personTrip from="-269782616#2" to="23320404#8" line="ANY" vTypes="motorcycle"/>
    <stop duration="6121" actType="singing"/>
    <personTrip from="23320404#8" to="231912406#1" line="ANY" vTypes="passenger"/>
    <stop duration="43182" actType="singing"/>
    <personTrip from="231912406#1" to="-269782616#2" line="ANY" modes="public"/>
    <personTrip from="-269782616#2" to="23320404#8" line="ANY" vTypes="passenger"/>
    <stop duration="2923" actType="singing"/>
    <personTrip from="23320404#8" to="231912406#1" line="ANY" modes="public"/>
    <stop duration="42315" actType="singing"/>
    <personTrip from="231912406#1" to="211035573#1" line="ANY" modes="public"/>
    <stop duration="973" actType="singing"/>
    <personTrip from="211035573#1" to="23275118#1" line="ANY" modes="public"/>
    <personTrip from="23275118#1" to="-607152571" line="ANY" vTypes="motorcycle"/>
    <stop duration="4354" actType="singing"/>
  </person>
</routes>
