<routes>
  <person id="p0" depart="0.00">
    <personTrip from="25415479#0" to="449555696#2" line="ANY" modes="public"/>
    <stop duration="29157" edge="449555696#2" actType="singing"/>
    <personTrip from="449555696#2" to="31626956#4" line="ANY" modes="public"/>
    <stop duration="41733" edge="31626956#4" actType="singing"/>
    <personTrip from="31626956#4" to="25415479#0" line="ANY" modes="public"/>
    <personTrip from="25415479#0" to="25415479#0" line="ANY" vTypes="passenger"/>
    <stop duration="48533" edge="25415479#0" actType="singing"/>
    <personTrip from="25415479#0" to="23184018" line="ANY" modes="public"/>
    <personTrip from="23184018" to="464511676" line="ANY" vTypes="bicycle"/>
    <stop duration="41481" edge="464511676" actType="singing"/>
    <personTrip from="464511676" to="135165880#0" line="ANY" modes="public"/>
    <personTrip from="135165880#0" to="-70237429#0" line="ANY" vTypes="passenger"/>
    <stop duration="29799" edge="-70237429#0" actType="singing"/>
    <personTrip from="-70237429#0" to="449555696#2" line="ANY" modes="public"/>
    <personTrip from="449555696#2" to="449555696#2" line="ANY" vTypes="passenger"/>
    <stop duration="29260" edge="449555696#2" actType="singing"/>
    <personTrip from="449555696#2" to="25415479#0" line="ANY" modes="public"/>
    <personTrip from="25415479#0" to="25415479#0" line="ANY" vTypes="bicycle"/>
    <stop duration="42504" edge="25415479#0" actType="singing"/>
    <personTrip from="25415479#0" to="-23999291#1" line="ANY" modes="public"/>
    <personTrip from="-23999291#1" to="449555696#2" line="ANY" vTypes="motorcycle"/>
    <stop duration="28486" edge="449555696#2" actType="singing"/>
    <personTrip from="449555696#2" to="911891328#0" line="ANY" modes="public"/>
    <personTrip from="911891328#0" to="911891328#0" line="ANY" vTypes="bicycle"/>
    <stop duration="32605" edge="911891328#0" actType="singing"/>
    <personTrip from="911891328#0" to="-38151518" line="ANY" modes="public"/>
    <stop duration="48458" edge="-38151518" actType="singing"/>
    <personTrip from="-38151518" to="-1164287131#0" line="ANY" modes="public"/>
    <personTrip from="-1164287131#0" to="449555696#2" line="ANY" vTypes="passenger"/>
    <stop duration="29092" edge="449555696#2" actType="singing"/>
    <personTrip from="449555696#2" to="25415479#0" line="ANY" modes="public"/>
    <stop duration="34620" edge="25415479#0" actType="singing"/>
    <personTrip from="25415479#0" to="4807774#3" line="ANY" modes="public"/>
    <stop duration="34247" edge="4807774#3" actType="singing"/>
    <personTrip from="4807774#3" to="31626945#0" line="ANY" modes="public"/>
    <stop duration="40625" edge="31626945#0" actType="singing"/>
    <personTrip from="31626945#0" to="25415479#0" line="ANY" modes="public"/>
    <personTrip from="25415479#0" to="25415479#0" line="ANY" vTypes="bicycle"/>
    <stop duration="37405" edge="25415479#0" actType="singing"/>
    <personTrip from="25415479#0" to="449555696#2" line="ANY" modes="public"/>
    <stop duration="33064" edge="449555696#2" actType="singing"/>
    <personTrip from="449555696#2" to="925072598" line="ANY" modes="public"/>
    <personTrip from="925072598" to="925072598" line="ANY" vTypes="passenger"/>
    <stop duration="29880" edge="925072598" actType="singing"/>
    <personTrip from="925072598" to="449555696#2" line="ANY" modes="public"/>
    <stop duration="34112" edge="449555696#2" actType="singing"/>
    <personTrip from="449555696#2" to="25415479#0" line="ANY" modes="public"/>
    <stop duration="35508" edge="25415479#0" actType="singing"/>
    <personTrip from="25415479#0" to="-95158558#0" line="ANY" modes="public"/>
    <stop duration="41233" edge="-95158558#0" actType="singing"/>
    <personTrip from="-95158558#0" to="25415479#0" line="ANY" modes="public"/>
    <personTrip from="25415479#0" to="25415479#0" line="ANY" vTypes="passenger"/>
    <stop duration="6739" edge="25415479#0" actType="singing"/>
    <personTrip from="25415479#0" to="-23999291#1" line="ANY" modes="public"/>
    <personTrip from="-23999291#1" to="449555696#2" line="ANY" vTypes="passenger"/>
    <stop duration="31308" edge="449555696#2" actType="singing"/>
    <personTrip from="449555696#2" to="148840363" line="ANY" modes="public"/>
    <personTrip from="148840363" to="148840363" line="ANY" vTypes="bicycle"/>
    <stop duration="43261" edge="148840363" actType="singing"/>
    <personTrip from="148840363" to="25415479#0" line="ANY" modes="public"/>
    <personTrip from="25415479#0" to="25415479#0" line="ANY" vTypes="motorcycle"/>
    <stop duration="8155" edge="25415479#0" actType="singing"/>
    <personTrip from="25415479#0" to="8080009" line="ANY" modes="public"/>
    <personTrip from="8080009" to="288809225#2" line="ANY" vTypes="passenger"/>
    <stop duration="47039" edge="288809225#2" actType="singing"/>
    <personTrip from="288809225#2" to="25415479#0" line="ANY" modes="public"/>
    <personTrip from="25415479#0" to="25415479#0" line="ANY" vTypes="bicycle"/>
    <stop duration="39287" edge="25415479#0" actType="singing"/>
    <personTrip from="25415479#0" to="4807768#2" line="ANY" modes="public"/>
    <personTrip from="4807768#2" to="-984678891#1" line="ANY" vTypes="motorcycle"/>
    <stop duration="48172" edge="-984678891#1" actType="singing"/>
    <personTrip from="-984678891#1" to="25415479#0" line="ANY" modes="public"/>
    <personTrip from="25415479#0" to="25415479#0" line="ANY" vTypes="motorcycle"/>
    <stop duration="32571" edge="25415479#0" actType="singing"/>
    <personTrip from="25415479#0" to="911970185" line="ANY" modes="public"/>
    <personTrip from="911970185" to="-837521439" line="ANY" vTypes="motorcycle"/>
    <stop duration="36362" edge="-837521439" actType="singing"/>
    <personTrip from="-837521439" to="25415479#0" line="ANY" modes="public"/>
    <personTrip from="25415479#0" to="25415479#0" line="ANY" vTypes="motorcycle"/>
    <stop duration="33723" edge="25415479#0" actType="singing"/>
  </person>
  <person id="p1" depart="0.00">
    <personTrip from="25415479#0" to="-23999291#1" line="ANY" modes="public"/>
    <personTrip from="-23999291#1" to="449555696#2" line="ANY" vTypes="bicycle"/>
    <stop duration="35066" edge="449555696#2" actType="singing"/>
    <personTrip from="449555696#2" to="26735073#0" line="ANY" modes="public"/>
    <personTrip from="26735073#0" to="26735073#0" line="ANY" vTypes="motorcycle"/>
    <stop duration="36137" edge="26735073#0" actType="singing"/>
    <personTrip from="26735073#0" to="25415479#0" line="ANY" modes="public"/>
    <stop duration="39660" edge="25415479#0" actType="singing"/>
    <personTrip from="25415479#0" to="449555696#2" line="ANY" modes="public"/>
    <stop duration="30293" edge="449555696#2" actType="singing"/>
    <personTrip from="449555696#2" to="25415479#0" line="ANY" modes="public"/>
    <personTrip from="25415479#0" to="25415479#0" line="ANY" vTypes="motorcycle"/>
    <stop duration="33282" edge="25415479#0" actType="singing"/>
    <personTrip from="25415479#0" to="449555696#2" line="ANY" modes="public"/>
    <stop duration="31987" edge="449555696#2" actType="singing"/>
    <personTrip from="449555696#2" to="25415479#0" line="ANY" modes="public"/>
    <personTrip from="25415479#0" to="25415479#0" line="ANY" vTypes="passenger"/>
    <stop duration="49906" edge="25415479#0" actType="singing"/>
    <personTrip from="25415479#0" to="-23275106" line="ANY" modes="public"/>
    <stop duration="36892" edge="-23275106" actType="singing"/>
    <personTrip from="-23275106" to="27531049#0" line="ANY" modes="public"/>
    <stop duration="45553" edge="27531049#0" actType="singing"/>
    <personTrip from="27531049#0" to="25415479#0" line="ANY" modes="public"/>
    <personTrip from="25415479#0" to="25415479#0" line="ANY" vTypes="motorcycle"/>
    <stop duration="35064" edge="25415479#0" actType="singing"/>
    <personTrip from="25415479#0" to="449555696#2" line="ANY" modes="public"/>
    <stop duration="30682" edge="449555696#2" actType="singing"/>
    <personTrip from="449555696#2" to="25415479#0" line="ANY" modes="public"/>
    <stop duration="50308" edge="25415479#0" actType="singing"/>
    <personTrip from="25415479#0" to="449555696#2" line="ANY" modes="public"/>
    <stop duration="31618" edge="449555696#2" actType="singing"/>
    <personTrip from="449555696#2" to="611784190" line="ANY" modes="public"/>
    <stop duration="44728" edge="611784190" actType="singing"/>
    <personTrip from="611784190" to="25415479#0" line="ANY" modes="public"/>
    <personTrip from="25415479#0" to="25415479#0" line="ANY" vTypes="motorcycle"/>
    <stop duration="7751" edge="25415479#0" actType="singing"/>
    <personTrip from="25415479#0" to="-23999291#1" line="ANY" modes="public"/>
    <personTrip from="-23999291#1" to="449555696#2" line="ANY" vTypes="motorcycle"/>
    <stop duration="34079" edge="449555696#2" actType="singing"/>
    <personTrip from="449555696#2" to="911891329" line="ANY" modes="public"/>
    <stop duration="39655" edge="911891329" actType="singing"/>
    <personTrip from="911891329" to="449555696#2" line="ANY" modes="public"/>
    <stop duration="34771" edge="449555696#2" actType="singing"/>
    <personTrip from="449555696#2" to="23534522#1" line="ANY" modes="public"/>
    <stop duration="48529" edge="23534522#1" actType="singing"/>
    <personTrip from="23534522#1" to="172027500#3" line="ANY" modes="public"/>
    <stop duration="38944" edge="172027500#3" actType="singing"/>
    <personTrip from="172027500#3" to="4807880#1" line="ANY" modes="public"/>
    <personTrip from="4807880#1" to="4807880#1" line="ANY" vTypes="passenger"/>
    <stop duration="41060" edge="4807880#1" actType="singing"/>
    <personTrip from="4807880#1" to="25415479#0" line="ANY" modes="public"/>
    <personTrip from="25415479#0" to="25415479#0" line="ANY" vTypes="bicycle"/>
    <stop duration="41772" edge="25415479#0" actType="singing"/>
    <personTrip from="25415479#0" to="-23999291#1" line="ANY" modes="public"/>
    <personTrip from="-23999291#1" to="449555696#2" line="ANY" vTypes="bicycle"/>
    <stop duration="35747" edge="449555696#2" actType="singing"/>
    <personTrip from="449555696#2" to="4807880#0" line="ANY" modes="public"/>
    <stop duration="30751" edge="4807880#0" actType="singing"/>
    <personTrip from="4807880#0" to="323485009#2" line="ANY" modes="public"/>
    <stop duration="45239" edge="323485009#2" actType="singing"/>
    <personTrip from="323485009#2" to="-25642408" line="ANY" modes="public"/>
    <personTrip from="-25642408" to="25415479#0" line="ANY" vTypes="bicycle"/>
    <stop duration="36353" edge="25415479#0" actType="singing"/>
    <personTrip from="25415479#0" to="31626956#4" line="ANY" modes="public"/>
    <stop duration="44151" edge="31626956#4" actType="singing"/>
    <personTrip from="31626956#4" to="25415479#0" line="ANY" modes="public"/>
    <stop duration="38325" edge="25415479#0" actType="singing"/>
    <personTrip from="25415479#0" to="5047080#2" line="ANY" modes="public"/>
    <stop duration="45883" edge="5047080#2" actType="singing"/>
    <personTrip from="5047080#2" to="25415479#0" line="ANY" modes="public"/>
    <personTrip from="25415479#0" to="25415479#0" line="ANY" vTypes="motorcycle"/>
    <stop duration="38882" edge="25415479#0" actType="singing"/>
  </person>
  <person id="p2" depart="0.00">
    <personTrip from="25415479#0" to="4807774#2" line="ANY" modes="public"/>
    <stop duration="39596" edge="4807774#2" actType="singing"/>
    <personTrip from="4807774#2" to="4807774#3" line="ANY" modes="public"/>
    <personTrip from="4807774#3" to="823051188#1" line="ANY" vTypes="motorcycle"/>
    <stop duration="38168" edge="823051188#1" actType="singing"/>
    <personTrip from="823051188#1" to="25415479#0" line="ANY" modes="public"/>
    <stop duration="30978" edge="25415479#0" actType="singing"/>
    <personTrip from="25415479#0" to="4807774#0" line="ANY" modes="public"/>
    <personTrip from="4807774#0" to="23174411" line="ANY" vTypes="passenger"/>
    <stop duration="37419" edge="23174411" actType="singing"/>
    <personTrip from="23174411" to="-611781710#0" line="ANY" modes="public"/>
    <personTrip from="-611781710#0" to="-611781710#0" line="ANY" vTypes="motorcycle"/>
    <stop duration="45783" edge="-611781710#0" actType="singing"/>
    <personTrip from="-611781710#0" to="-17096975#0" line="ANY" modes="public"/>
    <personTrip from="-17096975#0" to="639832307#0" line="ANY" vTypes="motorcycle"/>
    <stop duration="17243" edge="639832307#0" actType="singing"/>
    <personTrip from="639832307#0" to="1020368373" line="ANY" modes="public"/>
    <stop duration="47527" edge="1020368373" actType="singing"/>
    <personTrip from="1020368373" to="-4590683#2" line="ANY" modes="public"/>
    <stop duration="42557" edge="-4590683#2" actType="singing"/>
    <personTrip from="-4590683#2" to="965953205#0" line="ANY" modes="public"/>
    <stop duration="33310" edge="965953205#0" actType="singing"/>
    <personTrip from="965953205#0" to="639832307#0" line="ANY" modes="public"/>
    <stop duration="23397" edge="639832307#0" actType="singing"/>
    <personTrip from="639832307#0" to="4807770#1" line="ANY" modes="public"/>
    <personTrip from="4807770#1" to="4807770#1" line="ANY" vTypes="bicycle"/>
    <stop duration="48814" edge="4807770#1" actType="singing"/>
    <personTrip from="4807770#1" to="25415479#0" line="ANY" modes="public"/>
    <personTrip from="25415479#0" to="25415479#0" line="ANY" vTypes="motorcycle"/>
    <stop duration="46396" edge="25415479#0" actType="singing"/>
    <personTrip from="25415479#0" to="31626930" line="ANY" modes="public"/>
    <stop duration="39910" edge="31626930" actType="singing"/>
    <personTrip from="31626930" to="25415479#0" line="ANY" modes="public"/>
    <personTrip from="25415479#0" to="25415479#0" line="ANY" vTypes="motorcycle"/>
    <stop duration="39422" edge="25415479#0" actType="singing"/>
    <personTrip from="25415479#0" to="23312960#0" line="ANY" modes="public"/>
    <stop duration="32390" edge="23312960#0" actType="singing"/>
    <personTrip from="23312960#0" to="39761675#3" line="ANY" modes="public"/>
    <personTrip from="39761675#3" to="-38361904#1" line="ANY" vTypes="bicycle"/>
    <stop duration="38228" edge="-38361904#1" actType="singing"/>
    <personTrip from="-38361904#1" to="25415479#0" line="ANY" modes="public"/>
    <stop duration="40534" edge="25415479#0" actType="singing"/>
    <personTrip from="25415479#0" to="1020368373" line="ANY" modes="public"/>
    <stop duration="48858" edge="1020368373" actType="singing"/>
    <personTrip from="1020368373" to="25415479#0" line="ANY" modes="public"/>
    <personTrip from="25415479#0" to="25415479#0" line="ANY" vTypes="passenger"/>
    <stop duration="36331" edge="25415479#0" actType="singing"/>
    <personTrip from="25415479#0" to="8080009" line="ANY" modes="public"/>
    <personTrip from="8080009" to="62140554#0" line="ANY" vTypes="motorcycle"/>
    <stop duration="37340" edge="62140554#0" actType="singing"/>
    <personTrip from="62140554#0" to="25415479#0" line="ANY" modes="public"/>
    <stop duration="43702" edge="25415479#0" actType="singing"/>
    <personTrip from="25415479#0" to="15021494#1" line="ANY" modes="public"/>
    <stop duration="38211" edge="15021494#1" actType="singing"/>
    <personTrip from="15021494#1" to="25415479#0" line="ANY" modes="public"/>
    <stop duration="43907" edge="25415479#0" actType="singing"/>
    <personTrip from="25415479#0" to="639832307#0" line="ANY" modes="public"/>
    <stop duration="17540" edge="639832307#0" actType="singing"/>
    <personTrip from="639832307#0" to="25415479#0" line="ANY" modes="public"/>
    <stop duration="40334" edge="25415479#0" actType="singing"/>
    <personTrip from="25415479#0" to="4590693#0" line="ANY" modes="public"/>
    <personTrip from="4590693#0" to="25812050#1" line="ANY" vTypes="bicycle"/>
    <stop duration="31351" edge="25812050#1" actType="singing"/>
    <personTrip from="25812050#1" to="25415479#0" line="ANY" modes="public"/>
    <personTrip from="25415479#0" to="25415479#0" line="ANY" vTypes="bicycle"/>
    <stop duration="7166" edge="25415479#0" actType="singing"/>
    <personTrip from="25415479#0" to="4807880#0" line="ANY" modes="public"/>
    <stop duration="47317" edge="4807880#0" actType="singing"/>
    <personTrip from="4807880#0" to="25415479#0" line="ANY" modes="public"/>
    <stop duration="38690" edge="25415479#0" actType="singing"/>
    <personTrip from="25415479#0" to="-4807777" line="ANY" modes="public"/>
    <stop duration="38769" edge="-4807777" actType="singing"/>
  </person>
  <person id="p3" depart="0.00">
    <personTrip from="25415479#0" to="765613426" line="ANY" modes="public"/>
    <stop duration="20253" edge="765613426" actType="singing"/>
    <personTrip from="765613426" to="5047080#2" line="ANY" modes="public"/>
    <stop duration="30023" edge="5047080#2" actType="singing"/>
    <personTrip from="5047080#2" to="25415479#0" line="ANY" modes="public"/>
    <personTrip from="25415479#0" to="25415479#0" line="ANY" vTypes="passenger"/>
    <stop duration="41763" edge="25415479#0" actType="singing"/>
    <personTrip from="25415479#0" to="765613426" line="ANY" modes="public"/>
    <stop duration="15255" edge="765613426" actType="singing"/>
    <personTrip from="765613426" to="-17079940#1" line="ANY" modes="public"/>
    <stop duration="47611" edge="-17079940#1" actType="singing"/>
    <personTrip from="-17079940#1" to="25415479#0" line="ANY" modes="public"/>
    <personTrip from="25415479#0" to="25415479#0" line="ANY" vTypes="bicycle"/>
    <stop duration="47839" edge="25415479#0" actType="singing"/>
    <personTrip from="25415479#0" to="448018991" line="ANY" modes="public"/>
    <stop duration="47399" edge="448018991" actType="singing"/>
    <personTrip from="448018991" to="25415479#0" line="ANY" modes="public"/>
    <stop duration="49577" edge="25415479#0" actType="singing"/>
    <personTrip from="25415479#0" to="4807768#2" line="ANY" modes="public"/>
    <personTrip from="4807768#2" to="-4811548#1" line="ANY" vTypes="motorcycle"/>
    <stop duration="32897" edge="-4811548#1" actType="singing"/>
    <personTrip from="-4811548#1" to="823051188#2" line="ANY" modes="public"/>
    <stop duration="36197" edge="823051188#2" actType="singing"/>
    <personTrip from="823051188#2" to="765613426" line="ANY" modes="public"/>
    <stop duration="16145" edge="765613426" actType="singing"/>
    <personTrip from="765613426" to="25415479#0" line="ANY" modes="public"/>
    <personTrip from="25415479#0" to="25415479#0" line="ANY" vTypes="bicycle"/>
    <stop duration="49894" edge="25415479#0" actType="singing"/>
    <personTrip from="25415479#0" to="765613426" line="ANY" modes="public"/>
    <stop duration="15957" edge="765613426" actType="singing"/>
    <personTrip from="765613426" to="25415479#0" line="ANY" modes="public"/>
    <stop duration="6714" edge="25415479#0" actType="singing"/>
    <personTrip from="25415479#0" to="699824715#3" line="ANY" modes="public"/>
    <stop duration="46969" edge="699824715#3" actType="singing"/>
    <personTrip from="699824715#3" to="25415479#0" line="ANY" modes="public"/>
    <stop duration="30922" edge="25415479#0" actType="singing"/>
    <personTrip from="25415479#0" to="758088376#0" line="ANY" modes="public"/>
    <personTrip from="758088376#0" to="366025459#1" line="ANY" vTypes="motorcycle"/>
    <stop duration="46846" edge="366025459#1" actType="singing"/>
    <personTrip from="366025459#1" to="25415479#0" line="ANY" modes="public"/>
    <personTrip from="25415479#0" to="25415479#0" line="ANY" vTypes="passenger"/>
    <stop duration="44213" edge="25415479#0" actType="singing"/>
    <personTrip from="25415479#0" to="178668745" line="ANY" modes="public"/>
    <personTrip from="178668745" to="823051185#4" line="ANY" vTypes="passenger"/>
    <stop duration="47822" edge="823051185#4" actType="singing"/>
    <personTrip from="823051185#4" to="25415479#0" line="ANY" modes="public"/>
    <stop duration="49488" edge="25415479#0" actType="singing"/>
    <personTrip from="25415479#0" to="911970185" line="ANY" modes="public"/>
    <personTrip from="911970185" to="31626956#0" line="ANY" vTypes="passenger"/>
    <stop duration="48592" edge="31626956#0" actType="singing"/>
    <personTrip from="31626956#0" to="25415479#0" line="ANY" modes="public"/>
    <stop duration="42268" edge="25415479#0" actType="singing"/>
    <personTrip from="25415479#0" to="937818255" line="ANY" modes="public"/>
    <personTrip from="937818255" to="23184031" line="ANY" vTypes="bicycle"/>
    <stop duration="33960" edge="23184031" actType="singing"/>
    <personTrip from="23184031" to="25415479#0" line="ANY" modes="public"/>
    <personTrip from="25415479#0" to="25415479#0" line="ANY" vTypes="bicycle"/>
    <stop duration="33500" edge="25415479#0" actType="singing"/>
    <personTrip from="25415479#0" to="823051186#4" line="ANY" modes="public"/>
    <stop duration="39263" edge="823051186#4" actType="singing"/>
    <personTrip from="823051186#4" to="1020368373" line="ANY" modes="public"/>
    <stop duration="44397" edge="1020368373" actType="singing"/>
    <personTrip from="1020368373" to="272171169" line="ANY" modes="public"/>
    <personTrip from="272171169" to="272171169" line="ANY" vTypes="passenger"/>
    <stop duration="45518" edge="272171169" actType="singing"/>
    <personTrip from="272171169" to="345736597" line="ANY" modes="public"/>
    <personTrip from="345736597" to="4590683#2" line="ANY" vTypes="bicycle"/>
    <stop duration="41859" edge="4590683#2" actType="singing"/>
    <personTrip from="4590683#2" to="823051188#2" line="ANY" modes="public"/>
    <stop duration="45987" edge="823051188#2" actType="singing"/>
    <personTrip from="823051188#2" to="25415479#0" line="ANY" modes="public"/>
    <personTrip from="25415479#0" to="25415479#0" line="ANY" vTypes="motorcycle"/>
    <stop duration="40376" edge="25415479#0" actType="singing"/>
  </person>
  <person id="p4" depart="0.00">
    <personTrip from="25415479#0" to="265461450" line="ANY" modes="public"/>
    <personTrip from="265461450" to="448018991" line="ANY" vTypes="motorcycle"/>
    <stop duration="31236" edge="448018991" actType="singing"/>
    <personTrip from="448018991" to="231875723" line="ANY" modes="public"/>
    <stop duration="42497" edge="231875723" actType="singing"/>
    <personTrip from="231875723" to="548505096#1" line="ANY" modes="public"/>
    <stop duration="43468" edge="548505096#1" actType="singing"/>
    <personTrip from="548505096#1" to="-4811292" line="ANY" modes="public"/>
    <stop duration="47656" edge="-4811292" actType="singing"/>
    <personTrip from="-4811292" to="25415479#0" line="ANY" modes="public"/>
    <personTrip from="25415479#0" to="25415479#0" line="ANY" vTypes="motorcycle"/>
    <stop duration="35032" edge="25415479#0" actType="singing"/>
    <personTrip from="25415479#0" to="37745300" line="ANY" modes="public"/>
    <personTrip from="37745300" to="266632987" line="ANY" vTypes="bicycle"/>
    <stop duration="33621" edge="266632987" actType="singing"/>
    <personTrip from="266632987" to="25415479#0" line="ANY" modes="public"/>
    <personTrip from="25415479#0" to="25415479#0" line="ANY" vTypes="motorcycle"/>
    <stop duration="47793" edge="25415479#0" actType="singing"/>
    <personTrip from="25415479#0" to="128873578" line="ANY" modes="public"/>
    <stop duration="33616" edge="128873578" actType="singing"/>
    <personTrip from="128873578" to="25415479#0" line="ANY" modes="public"/>
    <stop duration="37264" edge="25415479#0" actType="singing"/>
    <personTrip from="25415479#0" to="26738118" line="ANY" modes="public"/>
    <stop duration="30287" edge="26738118" actType="singing"/>
    <personTrip from="26738118" to="32298002#1" line="ANY" modes="public"/>
    <stop duration="35010" edge="32298002#1" actType="singing"/>
    <personTrip from="32298002#1" to="25415479#0" line="ANY" modes="public"/>
    <personTrip from="25415479#0" to="25415479#0" line="ANY" vTypes="bicycle"/>
    <stop duration="39006" edge="25415479#0" actType="singing"/>
    <personTrip from="25415479#0" to="-70237429#0" line="ANY" modes="public"/>
    <stop duration="34020" edge="-70237429#0" actType="singing"/>
    <personTrip from="-70237429#0" to="-23736862" line="ANY" modes="public"/>
    <stop duration="41243" edge="-23736862" actType="singing"/>
    <personTrip from="-23736862" to="78043851#1" line="ANY" modes="public"/>
    <personTrip from="78043851#1" to="265099556" line="ANY" vTypes="motorcycle"/>
    <stop duration="41604" edge="265099556" actType="singing"/>
    <personTrip from="265099556" to="25415479#0" line="ANY" modes="public"/>
    <personTrip from="25415479#0" to="25415479#0" line="ANY" vTypes="passenger"/>
    <stop duration="38026" edge="25415479#0" actType="singing"/>
    <personTrip from="25415479#0" to="8080009" line="ANY" modes="public"/>
    <personTrip from="8080009" to="387401262#3" line="ANY" vTypes="motorcycle"/>
    <stop duration="44053" edge="387401262#3" actType="singing"/>
    <personTrip from="387401262#3" to="1249982189" line="ANY" modes="public"/>
    <personTrip from="1249982189" to="25415479#0" line="ANY" vTypes="passenger"/>
    <stop duration="33198" edge="25415479#0" actType="singing"/>
    <personTrip from="25415479#0" to="4807880#0" line="ANY" modes="public"/>
    <personTrip from="4807880#0" to="4807880#0" line="ANY" vTypes="bicycle"/>
    <stop duration="33429" edge="4807880#0" actType="singing"/>
    <personTrip from="4807880#0" to="316335639#2" line="ANY" modes="public"/>
    <stop duration="30043" edge="316335639#2" actType="singing"/>
    <personTrip from="316335639#2" to="25415479#0" line="ANY" modes="public"/>
    <stop duration="33250" edge="25415479#0" actType="singing"/>
    <personTrip from="25415479#0" to="25935614#0" line="ANY" modes="public"/>
    <personTrip from="25935614#0" to="-25973413#1" line="ANY" vTypes="passenger"/>
    <stop duration="41986" edge="-25973413#1" actType="singing"/>
    <personTrip from="-25973413#1" to="25415479#0" line="ANY" modes="public"/>
    <personTrip from="25415479#0" to="25415479#0" line="ANY" vTypes="bicycle"/>
    <stop duration="31203" edge="25415479#0" actType="singing"/>
    <personTrip from="25415479#0" to="37181837#5" line="ANY" modes="public"/>
    <personTrip from="37181837#5" to="4807773#2" line="ANY" vTypes="bicycle"/>
    <stop duration="48623" edge="4807773#2" actType="singing"/>
    <personTrip from="4807773#2" to="25415479#0" line="ANY" modes="public"/>
    <personTrip from="25415479#0" to="25415479#0" line="ANY" vTypes="motorcycle"/>
    <stop duration="45612" edge="25415479#0" actType="singing"/>
    <personTrip from="25415479#0" to="911970185" line="ANY" modes="public"/>
    <personTrip from="911970185" to="31626956#2" line="ANY" vTypes="passenger"/>
    <stop duration="35516" edge="31626956#2" actType="singing"/>
    <personTrip from="31626956#2" to="31626945#0" line="ANY" modes="public"/>
    <personTrip from="31626945#0" to="31626945#0" line="ANY" vTypes="passenger"/>
    <stop duration="37085" edge="31626945#0" actType="singing"/>
    <personTrip from="31626945#0" to="25415479#0" line="ANY" modes="public"/>
    <stop duration="30845" edge="25415479#0" actType="singing"/>
    <personTrip from="25415479#0" to="8080009" line="ANY" modes="public"/>
    <personTrip from="8080009" to="272673685" line="ANY" vTypes="motorcycle"/>
    <stop duration="46158" edge="272673685" actType="singing"/>
    <personTrip from="272673685" to="25415479#0" line="ANY" modes="public"/>
    <stop duration="42538" edge="25415479#0" actType="singing"/>
  </person>
</routes>
