<routes>
  <person id="p0" depart="0.00">
    <personTrip from="-25899767#0" to="-26684341#1" line="ANY" vTypes="bicycle"/>
    <stop duration="1933" actType="singing"/>
    <personTrip from="-25899767#0" to="-553076445#1" line="ANY" vTypes="bicycle"/>
    <stop duration="32683" actType="singing"/>
    <personTrip from="-26684341#1" to="-25899767#0" line="ANY" modes="public"/>
    <stop duration="7330" actType="singing"/>
  </person>
  <person id="p1" depart="0.00">
    <personTrip from="-25899767#0" to="29701092#4" line="ANY" modes="public"/>
    <stop duration="31936" actType="singing"/>
    <personTrip from="29701092#4" to="-26686029#1" line="ANY" vTypes="bicycle"/>
    <stop duration="5792" actType="singing"/>
    <personTrip from="-26686029#1" to="29701092#4" line="ANY" modes="public"/>
    <stop duration="29874" actType="singing"/>
  </person>
  <person id="p2" depart="0.00">
    <personTrip from="23471132#2" to="25812049" line="ANY" modes="public"/>
    <personTrip from="25812049" to="-25899767#0" line="ANY" vTypes="bicycle"/>
    <stop duration="6012" actType="singing"/>
    <personTrip from="-25899767#0" to="23471132#2" line="ANY" vTypes="passenger"/>
    <stop duration="1836" actType="singing"/>
    <personTrip from="-25899767#0" to="-26686029#1" line="ANY" modes="public"/>
    <stop duration="8912" actType="singing"/>
  </person>
  <person id="p3" depart="0.00">
    <personTrip from="45524896#1" to="44459823#1" line="ANY" modes="public"/>
    <stop duration="11583" actType="singing"/>
    <personTrip from="-25899767#0" to="45524896#1" line="ANY" modes="public"/>
    <stop duration="1943" actType="singing"/>
    <personTrip from="44459823#1" to="45524896#1" line="ANY" vTypes="bicycle"/>
    <stop duration="1132" actType="singing"/>
  </person>
  <person id="p4" depart="0.00">
    <personTrip from="-36990115" to="26738365#0" line="ANY" modes="public"/>
    <stop duration="1479" actType="singing"/>
    <personTrip from="-25899767#0" to="-36990115" line="ANY" vTypes="bicycle"/>
    <stop duration="6053" actType="singing"/>
    <personTrip from="26738365#0" to="394615943" line="ANY" vTypes="bicycle"/>
    <stop duration="11475" actType="singing"/>
  </person>
</routes>
