<routes>
  <person id="p0" depart="21600.00">
    <personTrip from="39551121" to="-96414313#0" line="ANY" vTypes="bicycle"/>
    <stop duration="31605" edge="-96414313#0" actType="singing"/>
  </person>
  <person id="p1" depart="21600.00">
    <personTrip from="39551121" to="970981143" line="ANY" modes="public"/>
    <stop duration="31897" edge="970981143" actType="singing"/>
  </person>
  <person id="p2" depart="21600.00">
    <personTrip from="39551121" to="970981143" line="ANY" modes="public"/>
    <stop duration="33221" edge="970981143" actType="singing"/>
  </person>
  <person id="p3" depart="21600.00">
    <personTrip from="38478976#3" to="-26735019" line="ANY" modes="public"/>
    <stop duration="32905" edge="-26735019" actType="singing"/>
  </person>
  <person id="p4" depart="21600.00">
    <personTrip from="38478976#3" to="-26735019" line="ANY" vTypes="bicycle"/>
    <stop duration="17888" edge="-26735019" actType="singing"/>
  </person>
  <person id="p5" depart="21600.00">
    <personTrip from="39551121" to="695712555#2" line="ANY" vTypes="passenger"/>
    <stop duration="14528" edge="695712555#2" actType="singing"/>
  </person>
  <person id="p6" depart="21600.00">
    <personTrip from="39551121" to="-38388547#5" line="ANY" vTypes="motorcycle"/>
    <stop duration="20530" edge="-38388547#5" actType="singing"/>
  </person>
  <person id="p7" depart="21600.00">
    <personTrip from="38478976#3" to="157115786" line="ANY" vTypes="motorcycle"/>
    <stop duration="17961" edge="157115786" actType="singing"/>
  </person>
  <person id="p8" depart="21600.00">
    <personTrip from="38478976#3" to="303259036#1" line="ANY" modes="public"/>
    <stop duration="33364" edge="303259036#1" actType="singing"/>
  </person>
  <person id="p9" depart="21600.00">
    <personTrip from="39551121" to="25812046#10" line="ANY" vTypes="passenger"/>
    <stop duration="45106" edge="25812046#10" actType="singing"/>
  </person>
</routes>
