<?xml version="1.0" ?>
<routes>
  <vType id="passenger" vClass="passenger"/>
  <vType id="bicycle" vClass="bicycle"/>
  <vType id="motorcycle" vClass="motorcycle"/>
  <person id="p0" depart="0.00">
    <personTrip from="127314434" to="-23163781" line="ANY" modes="public"/>
    <stop duration="10026" actType="singing"/>
    <personTrip from="-23163781" to="127314434" line="ANY" modes="public"/>
    <stop duration="42556" actType="singing"/>
  </person>
</routes>
