<routes>
  <person id="p0" depart="0.00">
    <personTrip from="-171959839#0" to="25213867#1" line="ANY" vTypes="motorcycle"/>
    <stop duration="33451" actType="singing"/>
    <personTrip from="25213867#1" to="-231995345#0" line="ANY" modes="public"/>
    <stop duration="10173" actType="singing"/>
    <personTrip from="-231995345#0" to="-171959839#0" line="ANY" modes="public"/>
    <stop duration="6501" actType="singing"/>
    <personTrip from="-171959839#0" to="-231995345#0" line="ANY" modes="public"/>
    <stop duration="6961" actType="singing"/>
    <personTrip from="-231995345#0" to="25213867#1" line="ANY" modes="public"/>
    <stop duration="28236" actType="singing"/>
    <personTrip from="25213867#1" to="23320636#1" line="ANY" modes="public"/>
    <stop duration="2078" actType="singing"/>
    <personTrip from="23320636#1" to="-171959839#0" line="ANY" modes="public"/>
    <stop duration="7460" actType="singing"/>
    <personTrip from="-171959839#0" to="25213867#1" line="ANY" vTypes="motorcycle"/>
    <stop duration="34458" actType="singing"/>
    <personTrip from="25213867#1" to="-231995345#0" line="ANY" vTypes="bicycle"/>
    <stop duration="4550" actType="singing"/>
    <personTrip from="-231995345#0" to="-171959839#0" line="ANY" vTypes="passenger"/>
    <stop duration="5416" actType="singing"/>
  </person>
</routes>
