<routes>
  <person id="p0" depart="0.00">
    <personTrip from="-127314436#0" to="-202580281" line="ANY" modes="public"/>
    <stop duration="48733" edge="-202580281" actType="singing"/>
  </person>
  <person id="p1" depart="0.00">
    <personTrip from="-127314436#0" to="31626956#9" line="ANY" modes="public"/>
    <stop duration="39567" edge="31626956#9" actType="singing"/>
  </person>
  <person id="p2" depart="0.00">
    <personTrip from="-127314436#0" to="4807837#0" line="ANY" modes="public"/>
    <stop duration="37135" edge="4807837#0" actType="singing"/>
  </person>
  <person id="p3" depart="0.00">
    <personTrip from="639832307#0" to="25518070" line="ANY" vTypes="motorcycle"/>
    <stop duration="5399" edge="25518070" actType="singing"/>
  </person>
  <person id="p4" depart="0.00">
    <personTrip from="-26735019" to="158878371#1" line="ANY" modes="public"/>
    <stop duration="42410" edge="158878371#1" actType="singing"/>
  </person>
  <person id="p5" depart="0.00">
    <personTrip from="5047080#2" to="765613426" line="ANY" vTypes="motorcycle"/>
    <stop duration="16814" edge="765613426" actType="singing"/>
  </person>
  <person id="p6" depart="0.00">
    <personTrip from="25518101" to="387401267#11" line="ANY" modes="public"/>
    <personTrip from="387401267#11" to="-22939381#0" line="ANY" vTypes="motorcycle"/>
    <stop duration="34127" edge="-22939381#0" actType="singing"/>
  </person>
  <person id="p7" depart="0.00">
    <personTrip from="695712555#2" to="-37181840#1" line="ANY" modes="public"/>
    <personTrip from="-37181840#1" to="31626956#6" line="ANY" vTypes="passenger"/>
    <stop duration="40503" edge="31626956#6" actType="singing"/>
  </person>
  <person id="p8" depart="0.00">
    <personTrip from="31828759#1" to="24620747#2" line="ANY" modes="public"/>
    <stop duration="48506" edge="24620747#2" actType="singing"/>
  </person>
  <person id="p9" depart="0.00">
    <personTrip from="31626956#4" to="316354387#1" line="ANY" modes="public"/>
    <stop duration="49872" edge="316354387#1" actType="singing"/>
  </person>
</routes>
