<routes>
  <person id="p0" depart="0.00">
    <personTrip from="10518207" to="692621733#1" line="ANY" modes="public"/>
    <stop duration="28751" edge="692621733#1" actType="singing"/>
    <personTrip from="692621733#1" to="272171169" line="ANY" modes="public"/>
    <personTrip from="272171169" to="272171169" line="ANY" vTypes="bicycle"/>
    <stop duration="34211" edge="272171169" actType="singing"/>
    <personTrip from="272171169" to="10518207" line="ANY" modes="public"/>
    <stop duration="40873" edge="10518207" actType="singing"/>
    <personTrip from="10518207" to="692621733#1" line="ANY" modes="public"/>
    <personTrip from="692621733#1" to="692621733#1" line="ANY" vTypes="bicycle"/>
    <stop duration="32505" edge="692621733#1" actType="singing"/>
    <personTrip from="692621733#1" to="4807880#1" line="ANY" modes="public"/>
    <stop duration="29629" edge="4807880#1" actType="singing"/>
    <personTrip from="4807880#1" to="10492736-AddedOffRampEdge" line="ANY" modes="public"/>
    <personTrip from="10492736-AddedOffRampEdge" to="10518207" line="ANY" vTypes="bicycle"/>
    <stop duration="30317" edge="10518207" actType="singing"/>
    <personTrip from="10518207" to="692621733#1" line="ANY" modes="public"/>
    <personTrip from="692621733#1" to="692621733#1" line="ANY" vTypes="passenger"/>
    <stop duration="34063" edge="692621733#1" actType="singing"/>
    <personTrip from="692621733#1" to="10518207" line="ANY" modes="public"/>
    <personTrip from="10518207" to="10518207" line="ANY" vTypes="passenger"/>
    <stop duration="35886" edge="10518207" actType="singing"/>
    <personTrip from="10518207" to="692621733#1" line="ANY" modes="public"/>
    <personTrip from="692621733#1" to="692621733#1" line="ANY" vTypes="passenger"/>
    <stop duration="35045" edge="692621733#1" actType="singing"/>
    <personTrip from="692621733#1" to="10518207" line="ANY" modes="public"/>
    <personTrip from="10518207" to="10518207" line="ANY" vTypes="bicycle"/>
    <stop duration="35870" edge="10518207" actType="singing"/>
  </person>
  <person id="p1" depart="0.00">
    <personTrip from="10518207" to="692621733#1" line="ANY" modes="public"/>
    <personTrip from="692621733#1" to="692621733#1" line="ANY" vTypes="motorcycle"/>
    <stop duration="35871" edge="692621733#1" actType="singing"/>
    <personTrip from="692621733#1" to="10518207" line="ANY" modes="public"/>
    <stop duration="44949" edge="10518207" actType="singing"/>
    <personTrip from="10518207" to="31151992#0" line="ANY" modes="public"/>
    <personTrip from="31151992#0" to="4590683#2" line="ANY" vTypes="passenger"/>
    <stop duration="32499" edge="4590683#2" actType="singing"/>
    <personTrip from="4590683#2" to="548505094#1" line="ANY" modes="public"/>
    <personTrip from="548505094#1" to="-481324298" line="ANY" vTypes="bicycle"/>
    <stop duration="32232" edge="-481324298" actType="singing"/>
    <personTrip from="-481324298" to="28673835" line="ANY" modes="public"/>
    <personTrip from="28673835" to="10518207" line="ANY" vTypes="bicycle"/>
    <stop duration="34349" edge="10518207" actType="singing"/>
    <personTrip from="10518207" to="692621733#1" line="ANY" modes="public"/>
    <stop duration="28776" edge="692621733#1" actType="singing"/>
    <personTrip from="692621733#1" to="1178660194#1" line="ANY" modes="public"/>
    <stop duration="38878" edge="1178660194#1" actType="singing"/>
    <personTrip from="1178660194#1" to="10518207" line="ANY" modes="public"/>
    <stop duration="30691" edge="10518207" actType="singing"/>
    <personTrip from="10518207" to="39765465" line="ANY" modes="public"/>
    <stop duration="34060" edge="39765465" actType="singing"/>
    <personTrip from="39765465" to="10518207" line="ANY" modes="public"/>
    <personTrip from="10518207" to="10518207" line="ANY" vTypes="passenger"/>
    <stop duration="46658" edge="10518207" actType="singing"/>
  </person>
  <person id="p2" depart="0.00">
    <personTrip from="10518207" to="-26735019" line="ANY" modes="public"/>
    <stop duration="31082" edge="-26735019" actType="singing"/>
    <personTrip from="-26735019" to="23184019#0" line="ANY" modes="public"/>
    <stop duration="33785" edge="23184019#0" actType="singing"/>
    <personTrip from="23184019#0" to="10518207" line="ANY" modes="public"/>
    <personTrip from="10518207" to="10518207" line="ANY" vTypes="motorcycle"/>
    <stop duration="46511" edge="10518207" actType="singing"/>
    <personTrip from="10518207" to="4807837#1" line="ANY" modes="public"/>
    <stop duration="36930" edge="4807837#1" actType="singing"/>
    <personTrip from="4807837#1" to="10518207" line="ANY" modes="public"/>
    <stop duration="42720" edge="10518207" actType="singing"/>
    <personTrip from="10518207" to="31626942" line="ANY" modes="public"/>
    <personTrip from="31626942" to="31626942" line="ANY" vTypes="bicycle"/>
    <stop duration="49958" edge="31626942" actType="singing"/>
    <personTrip from="31626942" to="180667064#0" line="ANY" modes="public"/>
    <personTrip from="180667064#0" to="10518207" line="ANY" vTypes="passenger"/>
    <stop duration="46127" edge="10518207" actType="singing"/>
    <personTrip from="10518207" to="-26735019" line="ANY" modes="public"/>
    <stop duration="18754" edge="-26735019" actType="singing"/>
    <personTrip from="-26735019" to="10518207" line="ANY" modes="public"/>
    <stop duration="47232" edge="10518207" actType="singing"/>
    <personTrip from="10518207" to="-26735019" line="ANY" modes="public"/>
    <stop duration="32470" edge="-26735019" actType="singing"/>
  </person>
  <person id="p3" depart="0.00">
    <personTrip from="10518207" to="765613426" line="ANY" modes="public"/>
    <stop duration="15094" edge="765613426" actType="singing"/>
    <personTrip from="765613426" to="198137953#0" line="ANY" modes="public"/>
    <stop duration="45289" edge="198137953#0" actType="singing"/>
    <personTrip from="198137953#0" to="243216872#1" line="ANY" modes="public"/>
    <personTrip from="243216872#1" to="10518207" line="ANY" vTypes="bicycle"/>
    <stop duration="45966" edge="10518207" actType="singing"/>
    <personTrip from="10518207" to="765613426" line="ANY" modes="public"/>
    <personTrip from="765613426" to="765613426" line="ANY" vTypes="motorcycle"/>
    <stop duration="18366" edge="765613426" actType="singing"/>
    <personTrip from="765613426" to="10518207" line="ANY" modes="public"/>
    <stop duration="47909" edge="10518207" actType="singing"/>
    <personTrip from="10518207" to="23176406" line="ANY" modes="public"/>
    <stop duration="49900" edge="23176406" actType="singing"/>
    <personTrip from="23176406" to="10518207" line="ANY" modes="public"/>
    <personTrip from="10518207" to="10518207" line="ANY" vTypes="bicycle"/>
    <stop duration="46325" edge="10518207" actType="singing"/>
    <personTrip from="10518207" to="765613426" line="ANY" modes="public"/>
    <stop duration="16769" edge="765613426" actType="singing"/>
    <personTrip from="765613426" to="1122913356#0" line="ANY" modes="public"/>
    <personTrip from="1122913356#0" to="109592901" line="ANY" vTypes="passenger"/>
    <stop duration="49274" edge="109592901" actType="singing"/>
    <personTrip from="109592901" to="30998717#0" line="ANY" modes="public"/>
    <personTrip from="30998717#0" to="10518207" line="ANY" vTypes="bicycle"/>
    <stop duration="45541" edge="10518207" actType="singing"/>
  </person>
  <person id="p4" depart="0.00">
    <personTrip from="10518207" to="-36919853#5" line="ANY" modes="public"/>
    <personTrip from="-36919853#5" to="-36919853#5" line="ANY" vTypes="bicycle"/>
    <stop duration="31860" edge="-36919853#5" actType="singing"/>
    <personTrip from="-36919853#5" to="9054575" line="ANY" modes="public"/>
    <personTrip from="9054575" to="9054575" line="ANY" vTypes="motorcycle"/>
    <stop duration="29627" edge="9054575" actType="singing"/>
    <personTrip from="9054575" to="400416445#5" line="ANY" modes="public"/>
    <personTrip from="400416445#5" to="10518207" line="ANY" vTypes="motorcycle"/>
    <stop duration="48094" edge="10518207" actType="singing"/>
    <personTrip from="10518207" to="449556512#7" line="ANY" modes="public"/>
    <personTrip from="449556512#7" to="449556512#7" line="ANY" vTypes="passenger"/>
    <stop duration="37111" edge="449556512#7" actType="singing"/>
    <personTrip from="449556512#7" to="10518207" line="ANY" modes="public"/>
    <stop duration="43796" edge="10518207" actType="singing"/>
    <personTrip from="10518207" to="-292876199#2" line="ANY" vTypes="motorcycle"/>
    <stop duration="33702" edge="-292876199#2" actType="singing"/>
    <personTrip from="-292876199#2" to="10518207" line="ANY" modes="public"/>
    <stop duration="47239" edge="10518207" actType="singing"/>
    <personTrip from="10518207" to="-169121712#0" line="ANY" modes="public"/>
    <stop duration="42231" edge="-169121712#0" actType="singing"/>
    <personTrip from="-169121712#0" to="10518207" line="ANY" modes="public"/>
    <stop duration="31889" edge="10518207" actType="singing"/>
    <personTrip from="10518207" to="54883366#2" line="ANY" modes="public"/>
    <stop duration="36943" edge="54883366#2" actType="singing"/>
  </person>
</routes>
