<?xml version="1.0" ?>
<routes>
  <vType id="passenger" vClass="passenger"/>
  <vType id="bicycle" vClass="bicycle"/>
  <vType id="motorcycle" vClass="motorcycle"/>
  <person id="Melita" depart="0.00">
    <personTrip from="432904388#6" to="-23163760" line="ANY" modes="public"/>
    <stop duration="747" actType="singing"/>
    <personTrip from="-23163760" to="255969097" line="ANY" modes="public"/>
    <stop duration="29544" actType="singing"/>
    <personTrip from="255969097" to="-23163760" line="ANY" modes="public"/>
    <stop duration="789" actType="singing"/>
    <personTrip from="-23163760" to="-388285826" line="ANY" modes="public"/>
    <personTrip from="-388285826" to="255969097" line="ANY" vTypes="motorcycle"/>
    <stop duration="32574" actType="singing"/>
    <personTrip from="255969097" to="432904388#6" line="ANY" modes="public"/>
    <stop duration="43089" actType="singing"/>
    <personTrip from="432904388#6" to="-432904388#7" line="ANY" modes="public"/>
    <personTrip from="-432904388#7" to="150691653" line="ANY" vTypes="bicycle"/>
    <stop duration="4050" actType="singing"/>
  </person>
  <person id="Valry" depart="0.00">
    <personTrip from="115373685#3" to="115373685#1" line="ANY" modes="public"/>
    <personTrip from="115373685#1" to="78043860#1" line="ANY" vTypes="passenger"/>
    <stop duration="755" actType="singing"/>
    <personTrip from="78043860#1" to="538359001#0" line="ANY" modes="public"/>
    <personTrip from="538359001#0" to="-25651383#0" line="ANY" vTypes="bicycle"/>
    <stop duration="8040" actType="singing"/>
    <personTrip from="-25651383#0" to="78043860#1" line="ANY" modes="public"/>
    <stop duration="1019" actType="singing"/>
    <personTrip from="78043860#1" to="214347558" line="ANY" modes="public"/>
    <stop duration="35513" actType="singing"/>
    <personTrip from="214347558" to="-267805141" line="ANY" modes="public"/>
    <personTrip from="-267805141" to="-25651383#0" line="ANY" vTypes="bicycle"/>
    <stop duration="7560" actType="singing"/>
    <personTrip from="-25651383#0" to="25651383#2" line="ANY" modes="public"/>
    <personTrip from="25651383#2" to="214347558" line="ANY" vTypes="motorcycle"/>
    <stop duration="35165" actType="singing"/>
  </person>
  <person id="Quiggly" depart="0.00">
    <personTrip from="231912439#5" to="694012888#0" line="ANY" modes="public"/>
    <stop duration="1048" actType="singing"/>
    <personTrip from="694012888#0" to="197541561#0" line="ANY" modes="public"/>
    <stop duration="30320" actType="singing"/>
    <personTrip from="197541561#0" to="231912439#5" line="ANY" modes="public"/>
    <stop duration="42084" actType="singing"/>
    <personTrip from="231912439#5" to="231912439#3" line="ANY" modes="public"/>
    <personTrip from="231912439#3" to="197541561#0" line="ANY" vTypes="bicycle"/>
    <stop duration="32952" actType="singing"/>
    <personTrip from="197541561#0" to="78043860#0" line="ANY" modes="public"/>
    <personTrip from="78043860#0" to="231912439#5" line="ANY" vTypes="bicycle"/>
    <stop duration="42418" actType="singing"/>
    <personTrip from="231912439#5" to="197541561#0" line="ANY" modes="public"/>
    <stop duration="35130" actType="singing"/>
  </person>
  <person id="Jeannine" depart="0.00">
    <personTrip from="231912750" to="-269782615#1" line="ANY" modes="public"/>
    <personTrip from="-269782615#1" to="-429210525" line="ANY" vTypes="motorcycle"/>
    <stop duration="1040" actType="singing"/>
    <personTrip from="-429210525" to="429210532" line="ANY" modes="public"/>
    <personTrip from="429210532" to="493291932#0" line="ANY" vTypes="motorcycle"/>
    <stop duration="8468" actType="singing"/>
    <personTrip from="493291932#0" to="-429210525" line="ANY" modes="public"/>
    <stop duration="605" actType="singing"/>
    <personTrip from="-429210525" to="105914662#1" line="ANY" modes="public"/>
    <stop duration="12691" actType="singing"/>
    <personTrip from="105914662#1" to="37181836#1" line="ANY" modes="public"/>
    <personTrip from="37181836#1" to="231912750" line="ANY" vTypes="bicycle"/>
    <stop duration="42103" actType="singing"/>
    <personTrip from="231912750" to="231912751#3" line="ANY" modes="public"/>
    <personTrip from="231912751#3" to="105914662#1" line="ANY" vTypes="motorcycle"/>
    <stop duration="13743" actType="singing"/>
  </person>
  <person id="Jewel" depart="0.00">
    <personTrip from="23093004#1" to="911891304" line="ANY" modes="public"/>
    <personTrip from="911891304" to="-26733995#3" line="ANY" vTypes="motorcycle"/>
    <stop duration="4802" actType="singing"/>
    <personTrip from="-26733995#3" to="23093004#1" line="ANY" modes="public"/>
    <stop duration="42548" actType="singing"/>
    <personTrip from="23093004#1" to="911891304" line="ANY" modes="public"/>
    <personTrip from="911891304" to="-26733995#3" line="ANY" vTypes="motorcycle"/>
    <stop duration="6652" actType="singing"/>
    <personTrip from="-26733995#3" to="224106070#1" line="ANY" modes="public"/>
    <personTrip from="224106070#1" to="4807753#1" line="ANY" vTypes="passenger"/>
    <stop duration="19589" actType="singing"/>
    <personTrip from="4807753#1" to="30760068#2" line="ANY" modes="public"/>
    <stop duration="640" actType="singing"/>
    <personTrip from="30760068#2" to="4807753#1" line="ANY" modes="public"/>
    <stop duration="17617" actType="singing"/>
  </person>
  <person id="Fredericka" depart="0.00">
    <personTrip from="231912406#1" to="231912407#5" line="ANY" modes="public"/>
    <personTrip from="231912407#5" to="23695162#2" line="ANY" vTypes="motorcycle"/>
    <stop duration="4640" actType="singing"/>
    <personTrip from="23695162#2" to="-124806870" line="ANY" modes="public"/>
    <stop duration="18121" actType="singing"/>
    <personTrip from="-124806870" to="1018729940" line="ANY" modes="public"/>
    <personTrip from="1018729940" to="23695162#2" line="ANY" vTypes="motorcycle"/>
    <stop duration="8064" actType="singing"/>
    <personTrip from="23695162#2" to="-124806870" line="ANY" modes="public"/>
    <stop duration="12201" actType="singing"/>
    <personTrip from="-124806870" to="124806876#0" line="ANY" modes="public"/>
    <personTrip from="124806876#0" to="231912406#1" line="ANY" vTypes="passenger"/>
    <stop duration="42901" actType="singing"/>
    <personTrip from="231912406#1" to="23695162#2" line="ANY" modes="public"/>
    <stop duration="5213" actType="singing"/>
  </person>
  <person id="Melodee" depart="0.00">
    <personTrip from="-26734306#0" to="116448813#0" line="ANY" modes="public"/>
    <stop duration="7616" actType="singing"/>
    <personTrip from="116448813#0" to="115373685#4" line="ANY" modes="public"/>
    <personTrip from="115373685#4" to="-26734306#0" line="ANY" vTypes="passenger"/>
    <stop duration="42116" actType="singing"/>
    <personTrip from="-26734306#0" to="23184020#1" line="ANY" modes="public"/>
    <stop duration="816" actType="singing"/>
    <personTrip from="23184020#1" to="116448813#0" line="ANY" modes="public"/>
    <stop duration="11589" actType="singing"/>
    <personTrip from="116448813#0" to="23184020#1" line="ANY" modes="public"/>
    <stop duration="673" actType="singing"/>
    <personTrip from="23184020#1" to="116448813#0" line="ANY" modes="public"/>
    <stop duration="5075" actType="singing"/>
  </person>
  <person id="Luella" depart="0.00">
    <personTrip from="-25935600#2" to="25576697#0" line="ANY" modes="public"/>
    <stop duration="18519" actType="singing"/>
    <personTrip from="25576697#0" to="70395557#1" line="ANY" vTypes="passenger"/>
    <stop duration="5162" actType="singing"/>
    <personTrip from="70395557#1" to="-25935600#2" line="ANY" modes="public"/>
    <stop duration="42008" actType="singing"/>
    <personTrip from="-25935600#2" to="70395557#1" line="ANY" modes="public"/>
    <stop duration="8561" actType="singing"/>
    <personTrip from="70395557#1" to="-25935600#2" line="ANY" vTypes="passenger"/>
    <stop duration="42933" actType="singing"/>
    <personTrip from="-25935600#2" to="-366030058#1" line="ANY" modes="public"/>
    <stop duration="1104" actType="singing"/>
  </person>
  <person id="Freda" depart="0.00">
    <personTrip from="-161235141#5" to="-161235141#4" line="ANY" modes="public"/>
    <personTrip from="-161235141#4" to="23446245#2" line="ANY" vTypes="passenger"/>
    <stop duration="866" actType="singing"/>
    <personTrip from="23446245#2" to="-189364993#0" line="ANY" modes="public"/>
    <stop duration="12903" actType="singing"/>
    <personTrip from="-189364993#0" to="122025256#5" line="ANY" modes="public"/>
    <stop duration="14601" actType="singing"/>
    <personTrip from="122025256#5" to="23446245#2" line="ANY" modes="public"/>
    <stop duration="681" actType="singing"/>
    <personTrip from="23446245#2" to="-189364993#0" line="ANY" modes="public"/>
    <stop duration="13936" actType="singing"/>
    <personTrip from="-189364993#0" to="23446245#2" line="ANY" modes="public"/>
    <stop duration="794" actType="singing"/>
  </person>
  <person id="Billie" depart="0.00">
    <personTrip from="-699824709" to="-699824714#0" line="ANY" modes="public"/>
    <personTrip from="-699824714#0" to="34391816#3" line="ANY" vTypes="passenger"/>
    <stop duration="3272" actType="singing"/>
    <personTrip from="34391816#3" to="-699824709" line="ANY" modes="public"/>
    <stop duration="42642" actType="singing"/>
    <personTrip from="-699824709" to="88379107#3" line="ANY" vTypes="bicycle"/>
    <stop duration="14375" actType="singing"/>
    <personTrip from="88379107#3" to="34391816#3" line="ANY" modes="public"/>
    <stop duration="3595" actType="singing"/>
    <personTrip from="34391816#3" to="34391816#1" line="ANY" modes="public"/>
    <personTrip from="34391816#1" to="-127314424#1" line="ANY" vTypes="passenger"/>
    <stop duration="763" actType="singing"/>
    <personTrip from="-127314424#1" to="88379107#3" line="ANY" modes="public"/>
    <stop duration="8194" actType="singing"/>
  </person>
  <person id="Haven" depart="0.00">
    <personTrip from="1180261360#4" to="36975135#0" line="ANY" modes="public"/>
    <personTrip from="36975135#0" to="-23032792#0" line="ANY" vTypes="bicycle"/>
    <stop duration="4346" actType="singing"/>
    <personTrip from="-23032792#0" to="-88336156#1" line="ANY" modes="public"/>
    <personTrip from="-88336156#1" to="911891309#1" line="ANY" vTypes="passenger"/>
    <stop duration="1025" actType="singing"/>
    <personTrip from="911891309#1" to="1180261360#4" line="ANY" modes="public"/>
    <stop duration="42557" actType="singing"/>
    <personTrip from="1180261360#4" to="115373654#4" line="ANY" modes="public"/>
    <stop duration="8663" actType="singing"/>
    <personTrip from="115373654#4" to="-115373654#9" line="ANY" modes="public"/>
    <personTrip from="-115373654#9" to="1180261360#4" line="ANY" vTypes="bicycle"/>
    <stop duration="42516" actType="singing"/>
    <personTrip from="1180261360#4" to="911891309#1" line="ANY" modes="public"/>
    <stop duration="924" actType="singing"/>
  </person>
  <person id="Virgie" depart="0.00">
    <personTrip from="24370629#1" to="-894722995" line="ANY" modes="public"/>
    <stop duration="7017" actType="singing"/>
    <personTrip from="-894722995" to="439857024#3" line="ANY" modes="public"/>
    <personTrip from="439857024#3" to="24370629#1" line="ANY" vTypes="bicycle"/>
    <stop duration="42168" actType="singing"/>
    <personTrip from="24370629#1" to="-264621638#0" line="ANY" modes="public"/>
    <personTrip from="-264621638#0" to="-894722995" line="ANY" vTypes="bicycle"/>
    <stop duration="8375" actType="singing"/>
    <personTrip from="-894722995" to="439857024#3" line="ANY" modes="public"/>
    <personTrip from="439857024#3" to="24370629#1" line="ANY" vTypes="passenger"/>
    <stop duration="42230" actType="singing"/>
    <personTrip from="24370629#1" to="-894722995" line="ANY" modes="public"/>
    <stop duration="9911" actType="singing"/>
    <personTrip from="-894722995" to="265103077#1" line="ANY" modes="public"/>
    <personTrip from="265103077#1" to="91382715#0" line="ANY" vTypes="motorcycle"/>
    <stop duration="1122" actType="singing"/>
  </person>
</routes>
