<routes>
  <person id="p0" depart="0.00">
    <personTrip from="156258609#1" to="-380427865" line="ANY" modes="public"/>
    <stop duration="5719" actType="singing"/>
    <personTrip from="1024863329#1" to="-380427865" line="ANY" modes="public"/>
    <stop duration="8301" actType="singing"/>
    <personTrip from="-380427865" to="1024863329#1" line="ANY" vTypes="motorcycle"/>
    <stop duration="32904" actType="singing"/>
  </person>
  <person id="p1" depart="0.00">
    <personTrip from="444946237#0" to="26521028#0" line="ANY" vTypes="bicycle"/>
    <stop duration="1095" actType="singing"/>
    <personTrip from="26521028#0" to="156258609#1" line="ANY" vTypes="motorcycle"/>
    <stop duration="8179" actType="singing"/>
    <personTrip from="156258609#1" to="444946237#0" line="ANY" vTypes="motorcycle"/>
    <stop duration="29570" actType="singing"/>
  </person>
  <person id="p2" depart="0.00">
    <personTrip from="32808438#2" to="156258609#1" line="ANY" vTypes="bicycle"/>
    <stop duration="7109" actType="singing"/>
    <personTrip from="156258609#1" to="32808438#2" line="ANY" vTypes="bicycle"/>
    <stop duration="1098" actType="singing"/>
    <personTrip from="156258609#1" to="32808438#2" line="ANY" modes="public"/>
    <stop duration="726" actType="singing"/>
  </person>
  <person id="p3" depart="0.00">
    <personTrip from="273169665#1" to="-287272584#1" line="ANY" modes="public"/>
    <stop duration="16001" actType="singing"/>
    <personTrip from="-287272584#1" to="273169665#1" line="ANY" modes="public"/>
    <stop duration="669" actType="singing"/>
    <personTrip from="156258609#1" to="-287272584#1" line="ANY" modes="public"/>
    <stop duration="18614" actType="singing"/>
  </person>
  <person id="p4" depart="0.00">
    <personTrip from="-380427865" to="751383408#0" line="ANY" modes="public"/>
    <stop duration="355" actType="singing"/>
    <personTrip from="751383408#0" to="-380427865" line="ANY" modes="public"/>
    <stop duration="14141" actType="singing"/>
    <personTrip from="156258609#1" to="-380427865" line="ANY" modes="public"/>
    <stop duration="3680" actType="singing"/>
  </person>
</routes>
