<routes>
  <person id="p0" depart="0.00">
    <personTrip from="-25073197#2" to="31626956#0" line="ANY" vTypes="passenger"/>
    <stop duration="994" edge="31626956#0" actType="singing"/>
  </person>
  <person id="p1" depart="0.00">
    <personTrip from="-25073197#2" to="103598731" line="ANY" modes="public"/>
    <stop duration="28545" edge="103598731" actType="singing"/>
  </person>
  <person id="p2" depart="0.00">
    <personTrip from="23032787#11" to="694116153#2" line="ANY" vTypes="bicycle"/>
    <stop duration="2098" edge="694116153#2" actType="singing"/>
  </person>
  <person id="p3" depart="0.00">
    <personTrip from="23032787#11" to="62140554#1" line="ANY" modes="public"/>
    <stop duration="1313" edge="62140554#1" actType="singing"/>
  </person>
  <person id="p4" depart="0.00">
    <personTrip from="-25073197#2" to="23320661#1" line="ANY" modes="public"/>
    <stop duration="12227" edge="23320661#1" actType="singing"/>
  </person>
  <person id="p5" depart="0.00">
    <personTrip from="-25073197#2" to="158387861#4" line="ANY" modes="public"/>
    <stop duration="13208" edge="158387861#4" actType="singing"/>
  </person>
  <person id="p6" depart="0.00">
    <personTrip from="23032787#11" to="323485009#2" line="ANY" modes="public"/>
    <stop duration="2334" edge="323485009#2" actType="singing"/>
  </person>
  <person id="p7" depart="0.00">
    <personTrip from="23032787#11" to="167795338#4" line="ANY" vTypes="bicycle"/>
    <stop duration="14807" edge="167795338#4" actType="singing"/>
  </person>
  <person id="p8" depart="0.00">
    <personTrip from="-25073197#2" to="15021494#1" line="ANY" vTypes="motorcycle"/>
    <stop duration="5164" edge="15021494#1" actType="singing"/>
  </person>
  <person id="p9" depart="0.00">
    <personTrip from="-25073197#2" to="31626956#6" line="ANY" vTypes="motorcycle"/>
    <stop duration="1082" edge="31626956#6" actType="singing"/>
  </person>
</routes>
