<?xml version="1.0" ?>
<routes>
  <vType id="passenger" vClass="passenger"/>
  <vType id="bicycle" vClass="bicycle"/>
  <vType id="motorcycle" vClass="motorcycle"/>
  <person id="p0" depart="0.00">
    <personTrip from="-130274319#1" to="-1147767206#2" line="ANY" vTypes="bicycle"/>
    <stop duration="103" actType="singing"/>
    <personTrip from="-1147767206#2" to="-205275738#0" line="ANY" modes="public"/>
    <personTrip from="-205275738#0" to="-273990571#3" line="ANY" vTypes="passenger"/>
    <stop duration="32" actType="singing"/>
    <personTrip from="-273990571#3" to="-1147767206#2" line="ANY" vTypes="bicycle"/>
    <stop duration="71" actType="singing"/>
  </person>
  <person id="p1" depart="0.00">
    <personTrip from="921767197#1" to="4807837#0" line="ANY" modes="public"/>
    <personTrip from="4807837#0" to="-29701092#3" line="ANY" vTypes="passenger"/>
    <stop duration="35" actType="singing"/>
    <personTrip from="-29701092#3" to="432904388#2" line="ANY" modes="public"/>
    <stop duration="114" actType="singing"/>
    <personTrip from="432904388#2" to="-23182939" line="ANY" vTypes="motorcycle"/>
    <stop duration="96" actType="singing"/>
  </person>
  <person id="p2" depart="0.00">
    <personTrip from="127711239" to="-387401267#6" line="ANY" modes="public"/>
    <personTrip from="-387401267#6" to="-264335987" line="ANY" vTypes="passenger"/>
    <stop duration="34" actType="singing"/>
    <personTrip from="-264335987" to="693946722#0" line="ANY" modes="public"/>
    <personTrip from="693946722#0" to="34393477#1" line="ANY" vTypes="passenger"/>
    <stop duration="138" actType="singing"/>
    <personTrip from="34393477#1" to="-25596853" line="ANY" modes="public"/>
    <stop duration="93" actType="singing"/>
  </person>
  <person id="p3" depart="0.00">
    <personTrip from="-269782614#1" to="823051186#3" line="ANY" modes="public"/>
    <stop duration="49" actType="singing"/>
    <personTrip from="823051186#3" to="-791536992" line="ANY" modes="public"/>
    <stop duration="86" actType="singing"/>
    <personTrip from="-791536992" to="-269782614#1" line="ANY" modes="public"/>
    <stop duration="43" actType="singing"/>
  </person>
  <person id="p4" depart="0.00">
    <personTrip from="-118976653" to="-4807744#1" line="ANY" modes="public"/>
    <stop duration="89" actType="singing"/>
    <personTrip from="-4807744#1" to="25384891#7" line="ANY" vTypes="passenger"/>
    <stop duration="31" actType="singing"/>
    <personTrip from="25384891#7" to="-118976653" line="ANY" modes="public"/>
    <stop duration="42" actType="singing"/>
  </person>
  <person id="p5" depart="0.00">
    <personTrip from="281962648#1" to="-23528370" line="ANY" modes="public"/>
    <stop duration="103" actType="singing"/>
    <personTrip from="-23528370" to="281962648#1" line="ANY" modes="public"/>
    <stop duration="42" actType="singing"/>
    <personTrip from="281962648#1" to="23032782" line="ANY" modes="public"/>
    <stop duration="32" actType="singing"/>
  </person>
  <person id="p6" depart="0.00">
    <personTrip from="762379548#1" to="-324049626" line="ANY" modes="public"/>
    <stop duration="72" actType="singing"/>
    <personTrip from="-324049626" to="25576697#3" line="ANY" vTypes="passenger"/>
    <stop duration="30" actType="singing"/>
    <personTrip from="25576697#3" to="-324049626" line="ANY" vTypes="motorcycle"/>
    <stop duration="38" actType="singing"/>
  </person>
  <person id="p7" depart="0.00">
    <personTrip from="-26683925#1" to="-208691154#2" line="ANY" modes="public"/>
    <stop duration="82" actType="singing"/>
    <personTrip from="-208691154#2" to="-26683925#1" line="ANY" modes="public"/>
    <stop duration="43" actType="singing"/>
    <personTrip from="-26683925#1" to="-208691154#2" line="ANY" modes="public"/>
    <stop duration="67" actType="singing"/>
  </person>
  <person id="p8" depart="0.00">
    <personTrip from="-464521752" to="169224407#3" line="ANY" modes="public"/>
    <personTrip from="169224407#3" to="-26686029#1" line="ANY" vTypes="passenger"/>
    <stop duration="79" actType="singing"/>
    <personTrip from="-26686029#1" to="-464521752" line="ANY" vTypes="bicycle"/>
    <stop duration="42" actType="singing"/>
    <personTrip from="-464521752" to="401038000#0" line="ANY" modes="public"/>
    <personTrip from="401038000#0" to="125393298#0" line="ANY" vTypes="motorcycle"/>
    <stop duration="55" actType="singing"/>
  </person>
  <person id="p9" depart="0.00">
    <personTrip from="202499355#0" to="-399038514#1" line="ANY" vTypes="bicycle"/>
    <stop duration="57" actType="singing"/>
    <personTrip from="-399038514#1" to="10230452#7" line="ANY" modes="public"/>
    <stop duration="28" actType="singing"/>
    <personTrip from="10230452#7" to="222756660" line="ANY" vTypes="motorcycle"/>
    <stop duration="89" actType="singing"/>
  </person>
</routes>
