<routes>
  <person id="p0" depart="0.00">
    <personTrip from="-195959129#1" to="4807772#1" line="ANY" modes="public"/>
    <stop duration="1624" actType="singing"/>
  </person>
  <person id="p1" depart="0.00">
    <personTrip from="591252085" to="-23415819" line="ANY" modes="public"/>
    <stop duration="7334" actType="singing"/>
  </person>
  <person id="p2" depart="0.00">
    <personTrip from="148840345#5" to="387401267#1" line="ANY" modes="public"/>
    <personTrip from="387401267#1" to="401262922#3" line="ANY" vTypes="bicycle"/>
    <stop duration="4132" actType="singing"/>
  </person>
  <person id="p3" depart="0.00">
    <personTrip from="24994574#1" to="-13881857#1" line="ANY" modes="public"/>
    <stop duration="14323" actType="singing"/>
  </person>
  <person id="p4" depart="0.00">
    <personTrip from="200692272" to="23275244#2" line="ANY" modes="public"/>
    <stop duration="8495" actType="singing"/>
  </person>
  <person id="p5" depart="0.00">
    <personTrip from="23275244#2" to="317594566#1" line="ANY" vTypes="passenger"/>
    <stop duration="30710" actType="singing"/>
  </person>
  <person id="p6" depart="0.00">
    <personTrip from="865348450" to="-10442531#12" line="ANY" modes="public"/>
    <personTrip from="-10442531#12" to="1168323015#1" line="ANY" vTypes="motorcycle"/>
    <stop duration="7432" actType="singing"/>
  </person>
  <person id="p7" depart="0.00">
    <personTrip from="24994574#1" to="-23551722#2" line="ANY" vTypes="bicycle"/>
    <stop duration="34799" actType="singing"/>
  </person>
  <person id="p8" depart="0.00">
    <personTrip from="591252085" to="-231912439#5" line="ANY" vTypes="motorcycle"/>
    <stop duration="4926" actType="singing"/>
  </person>
  <person id="p9" depart="0.00">
    <personTrip from="379532780" to="25872102" line="ANY" vTypes="bicycle"/>
    <stop duration="6563" actType="singing"/>
  </person>
  <person id="p10" depart="0.00">
    <personTrip from="-195959129#1" to="-12098881#5" line="ANY" modes="public"/>
    <personTrip from="-12098881#5" to="701687773" line="ANY" vTypes="passenger"/>
    <stop duration="6057" actType="singing"/>
  </person>
  <person id="p11" depart="0.00">
    <personTrip from="4807772#1" to="-23551722#2" line="ANY" vTypes="passenger"/>
    <stop duration="31565" actType="singing"/>
  </person>
  <person id="p12" depart="0.00">
    <personTrip from="23275244#2" to="23147576#0" line="ANY" vTypes="passenger"/>
    <stop duration="1552" actType="singing"/>
  </person>
  <person id="p13" depart="0.00">
    <personTrip from="23551694#1" to="-169097419#1" line="ANY" modes="public"/>
    <personTrip from="-169097419#1" to="-231912439#5" line="ANY" vTypes="passenger"/>
    <stop duration="6707" actType="singing"/>
  </person>
  <person id="p14" depart="0.00">
    <personTrip from="303259035#4" to="931172049" line="ANY" modes="public"/>
    <stop duration="800" actType="singing"/>
  </person>
  <person id="p15" depart="0.00">
    <personTrip from="591252085" to="-25973410#1" line="ANY" vTypes="passenger"/>
    <stop duration="3943" actType="singing"/>
  </person>
  <person id="p16" depart="0.00">
    <personTrip from="23275244#2" to="-70531935#0" line="ANY" vTypes="bicycle"/>
    <stop duration="5201" actType="singing"/>
  </person>
  <person id="p17" depart="0.00">
    <personTrip from="23275244#2" to="-283022107#4" line="ANY" modes="public"/>
    <stop duration="4590" actType="singing"/>
  </person>
  <person id="p18" depart="0.00">
    <personTrip from="-23551722#2" to="38388547#4" line="ANY" modes="public"/>
    <stop duration="7987" actType="singing"/>
  </person>
  <person id="p19" depart="0.00">
    <personTrip from="303259035#4" to="-911891326#0" line="ANY" modes="public"/>
    <personTrip from="-911891326#0" to="159822898" line="ANY" vTypes="passenger"/>
    <stop duration="35435" actType="singing"/>
  </person>
  <person id="p20" depart="0.00">
    <personTrip from="148840345#5" to="-23119545" line="ANY" modes="public"/>
    <personTrip from="-23119545" to="865348450" line="ANY" vTypes="motorcycle"/>
    <stop duration="34112" actType="singing"/>
  </person>
  <person id="p21" depart="0.00">
    <personTrip from="148840345#5" to="379532780" line="ANY" modes="public"/>
    <stop duration="12597" actType="singing"/>
  </person>
  <person id="p22" depart="0.00">
    <personTrip from="379532780" to="-376231521#5" line="ANY" modes="public"/>
    <personTrip from="-376231521#5" to="1162834455" line="ANY" vTypes="motorcycle"/>
    <stop duration="5860" actType="singing"/>
  </person>
  <person id="p23" depart="0.00">
    <personTrip from="23275165#1" to="4807772#1" line="ANY" modes="public"/>
    <stop duration="692" actType="singing"/>
  </person>
  <person id="p24" depart="0.00">
    <personTrip from="-22910596#2" to="401262922#3" line="ANY" modes="public"/>
    <stop duration="13648" actType="singing"/>
  </person>
  <person id="p25" depart="0.00">
    <personTrip from="591252085" to="-283022107#4" line="ANY" vTypes="bicycle"/>
    <stop duration="4307" actType="singing"/>
  </person>
  <person id="p26" depart="0.00">
    <personTrip from="404783325" to="23285078#8" line="ANY" modes="public"/>
    <stop duration="7865" actType="singing"/>
  </person>
  <person id="p27" depart="0.00">
    <personTrip from="200692272" to="303259035#4" line="ANY" modes="public"/>
    <stop duration="4171" actType="singing"/>
  </person>
  <person id="p28" depart="0.00">
    <personTrip from="-22910596#2" to="35822596#1" line="ANY" modes="public"/>
    <stop duration="6362" actType="singing"/>
  </person>
  <person id="p29" depart="0.00">
    <personTrip from="159822898" to="1178661590" line="ANY" modes="public"/>
    <stop duration="1682" actType="singing"/>
  </person>
  <person id="p30" depart="0.00">
    <personTrip from="148840345#5" to="379532780" line="ANY" modes="public"/>
    <stop duration="6363" actType="singing"/>
  </person>
  <person id="p31" depart="0.00">
    <personTrip from="133525687#1" to="281956705#3" line="ANY" modes="public"/>
    <personTrip from="281956705#3" to="1168323015#1" line="ANY" vTypes="bicycle"/>
    <stop duration="11012" actType="singing"/>
  </person>
  <person id="p32" depart="0.00">
    <personTrip from="-195959129#1" to="148840345#5" line="ANY" vTypes="bicycle"/>
    <stop duration="1082" actType="singing"/>
  </person>
  <person id="p33" depart="0.00">
    <personTrip from="1219280688" to="261543533" line="ANY" modes="public"/>
    <stop duration="6462" actType="singing"/>
  </person>
  <person id="p34" depart="0.00">
    <personTrip from="-25973410#1" to="133525687#1" line="ANY" modes="public"/>
    <stop duration="32622" actType="singing"/>
  </person>
  <person id="p35" depart="0.00">
    <personTrip from="23275244#2" to="-448036758#3" line="ANY" vTypes="passenger"/>
    <stop duration="7535" actType="singing"/>
  </person>
  <person id="p36" depart="0.00">
    <personTrip from="1219280688" to="-4807759#1" line="ANY" modes="public"/>
    <personTrip from="-4807759#1" to="379532780" line="ANY" vTypes="passenger"/>
    <stop duration="10738" actType="singing"/>
  </person>
  <person id="p37" depart="0.00">
    <personTrip from="-23551722#2" to="-91381891" line="ANY" modes="public"/>
    <stop duration="5856" actType="singing"/>
  </person>
  <person id="p38" depart="0.00">
    <personTrip from="931172049" to="401262922#3" line="ANY" vTypes="motorcycle"/>
    <stop duration="6036" actType="singing"/>
  </person>
  <person id="p39" depart="0.00">
    <personTrip from="1178661590" to="472411883#0" line="ANY" modes="public"/>
    <personTrip from="472411883#0" to="-195959129#1" line="ANY" vTypes="bicycle"/>
    <stop duration="34124" actType="singing"/>
  </person>
  <person id="p40" depart="0.00">
    <personTrip from="133525687#1" to="717160902#0" line="ANY" modes="public"/>
    <personTrip from="717160902#0" to="53563630#1" line="ANY" vTypes="passenger"/>
    <stop duration="12534" actType="singing"/>
  </person>
  <person id="p41" depart="0.00">
    <personTrip from="133525687#1" to="1168323015#1" line="ANY" modes="public"/>
    <stop duration="6536" actType="singing"/>
  </person>
  <person id="p42" depart="0.00">
    <personTrip from="23147576#0" to="-195959129#1" line="ANY" modes="public"/>
    <stop duration="33854" actType="singing"/>
  </person>
  <person id="p43" depart="0.00">
    <personTrip from="24994574#1" to="-22910596#2" line="ANY" vTypes="passenger"/>
    <stop duration="32500" actType="singing"/>
  </person>
  <person id="p44" depart="0.00">
    <personTrip from="1168323015#1" to="-548460251" line="ANY" modes="public"/>
    <stop duration="4473" actType="singing"/>
  </person>
  <person id="p45" depart="0.00">
    <personTrip from="23147576#0" to="342553326#0" line="ANY" modes="public"/>
    <stop duration="29803" actType="singing"/>
  </person>
  <person id="p46" depart="0.00">
    <personTrip from="404783325" to="16361896" line="ANY" modes="public"/>
    <personTrip from="16361896" to="303259035#4" line="ANY" vTypes="motorcycle"/>
    <stop duration="13603" actType="singing"/>
  </person>
  <person id="p47" depart="0.00">
    <personTrip from="200692272" to="220838453" line="ANY" vTypes="bicycle"/>
    <stop duration="8142" actType="singing"/>
  </person>
  <person id="p48" depart="0.00">
    <personTrip from="133525687#1" to="401262922#3" line="ANY" modes="public"/>
    <stop duration="7141" actType="singing"/>
  </person>
  <person id="p49" depart="0.00">
    <personTrip from="23551694#1" to="24447759#1" line="ANY" modes="public"/>
    <personTrip from="24447759#1" to="159822898" line="ANY" vTypes="passenger"/>
    <stop duration="34080" actType="singing"/>
  </person>
  <person id="p50" depart="0.00">
    <personTrip from="23551694#1" to="-23551722#2" line="ANY" modes="public"/>
    <personTrip from="-23551722#2" to="-23551722#2" line="ANY" vTypes="motorcycle"/>
    <stop duration="28575" actType="singing"/>
  </person>
  <person id="p51" depart="0.00">
    <personTrip from="23551694#1" to="701687773" line="ANY" modes="public"/>
    <stop duration="7250" actType="singing"/>
  </person>
  <person id="p52" depart="0.00">
    <personTrip from="317594566#1" to="-23167175#0" line="ANY" modes="public"/>
    <stop duration="4386" actType="singing"/>
  </person>
  <person id="p53" depart="0.00">
    <personTrip from="148840345#5" to="-23551722#2" line="ANY" modes="public"/>
    <stop duration="33059" actType="singing"/>
  </person>
  <person id="p54" depart="0.00">
    <personTrip from="-4813442" to="23320823#2" line="ANY" modes="public"/>
    <stop duration="6859" actType="singing"/>
  </person>
  <person id="p55" depart="0.00">
    <personTrip from="1178661590" to="23312964#1" line="ANY" modes="public"/>
    <stop duration="6852" actType="singing"/>
  </person>
  <person id="p56" depart="0.00">
    <personTrip from="23147576#0" to="26520790#0" line="ANY" modes="public"/>
    <stop duration="7103" actType="singing"/>
  </person>
  <person id="p57" depart="0.00">
    <personTrip from="200692272" to="-22910596#2" line="ANY" modes="public"/>
    <stop duration="34592" actType="singing"/>
  </person>
  <person id="p58" depart="0.00">
    <personTrip from="-4813442" to="50257937#0" line="ANY" modes="public"/>
    <stop duration="8282" actType="singing"/>
  </person>
  <person id="p59" depart="0.00">
    <personTrip from="23320823#2" to="159822898" line="ANY" modes="public"/>
    <stop duration="34563" actType="singing"/>
  </person>
  <person id="p60" depart="0.00">
    <personTrip from="53563630#1" to="9054584#3" line="ANY" modes="public"/>
    <personTrip from="9054584#3" to="23551694#1" line="ANY" vTypes="passenger"/>
    <stop duration="1956" actType="singing"/>
  </person>
  <person id="p61" depart="0.00">
    <personTrip from="159822898" to="401262922#3" line="ANY" vTypes="motorcycle"/>
    <stop duration="12731" actType="singing"/>
  </person>
  <person id="p62" depart="0.00">
    <personTrip from="24994574#1" to="53563630#1" line="ANY" vTypes="bicycle"/>
    <stop duration="7143" actType="singing"/>
  </person>
  <person id="p63" depart="0.00">
    <personTrip from="-4813442" to="23275165#1" line="ANY" modes="public"/>
    <stop duration="12959" actType="singing"/>
  </person>
  <person id="p64" depart="0.00">
    <personTrip from="200692272" to="401262922#3" line="ANY" modes="public"/>
    <personTrip from="401262922#3" to="401262922#3" line="ANY" vTypes="passenger"/>
    <stop duration="12681" actType="singing"/>
  </person>
  <person id="p65" depart="0.00">
    <personTrip from="-13881857#1" to="-22910596#2" line="ANY" vTypes="motorcycle"/>
    <stop duration="32927" actType="singing"/>
  </person>
  <person id="p66" depart="0.00">
    <personTrip from="53563630#1" to="943526836" line="ANY" modes="public"/>
    <personTrip from="943526836" to="281967827" line="ANY" vTypes="passenger"/>
    <stop duration="4370" actType="singing"/>
  </person>
  <person id="p67" depart="0.00">
    <personTrip from="23320823#2" to="-355357507" line="ANY" modes="public"/>
    <personTrip from="-355357507" to="591252085" line="ANY" vTypes="bicycle"/>
    <stop duration="1555" actType="singing"/>
  </person>
  <person id="p68" depart="0.00">
    <personTrip from="23147576#0" to="342553326#0" line="ANY" modes="public"/>
    <stop duration="28037" actType="singing"/>
  </person>
  <person id="p69" depart="0.00">
    <personTrip from="148840345#5" to="1168323015#1" line="ANY" modes="public"/>
    <stop duration="6361" actType="singing"/>
  </person>
  <person id="p70" depart="0.00">
    <personTrip from="4807772#1" to="53563630#1" line="ANY" modes="public"/>
    <stop duration="13964" actType="singing"/>
  </person>
  <person id="p71" depart="0.00">
    <personTrip from="317594566#1" to="23147576#0" line="ANY" modes="public"/>
    <stop duration="1093" actType="singing"/>
  </person>
  <person id="p72" depart="0.00">
    <personTrip from="379532780" to="-70531942#3" line="ANY" modes="public"/>
    <stop duration="4795" actType="singing"/>
  </person>
  <person id="p73" depart="0.00">
    <personTrip from="1178661590" to="4813445" line="ANY" modes="public"/>
    <stop duration="8146" actType="singing"/>
  </person>
  <person id="p74" depart="0.00">
    <personTrip from="-22910596#2" to="591252085" line="ANY" vTypes="bicycle"/>
    <stop duration="918" actType="singing"/>
  </person>
  <person id="p75" depart="0.00">
    <personTrip from="23551694#1" to="-25973410#1" line="ANY" modes="public"/>
    <personTrip from="-25973410#1" to="-25973410#1" line="ANY" vTypes="passenger"/>
    <stop duration="4133" actType="singing"/>
  </person>
  <person id="p76" depart="0.00">
    <personTrip from="23320823#2" to="133525687#1" line="ANY" modes="public"/>
    <stop duration="34788" actType="singing"/>
  </person>
  <person id="p77" depart="0.00">
    <personTrip from="303259035#4" to="-911891326#0" line="ANY" modes="public"/>
    <personTrip from="-911891326#0" to="4807772#1" line="ANY" vTypes="motorcycle"/>
    <stop duration="1910" actType="singing"/>
  </person>
  <person id="p78" depart="0.00">
    <personTrip from="865348450" to="-23167175#1" line="ANY" modes="public"/>
    <stop duration="6460" actType="singing"/>
  </person>
  <person id="p79" depart="0.00">
    <personTrip from="53563630#1" to="404783325" line="ANY" vTypes="bicycle"/>
    <stop duration="35043" actType="singing"/>
  </person>
  <person id="p80" depart="0.00">
    <personTrip from="-4813442" to="-23551722#2" line="ANY" vTypes="motorcycle"/>
    <stop duration="32479" actType="singing"/>
  </person>
  <person id="p81" depart="0.00">
    <personTrip from="317594566#1" to="-432904378" line="ANY" modes="public"/>
    <personTrip from="-432904378" to="1168323015#1" line="ANY" vTypes="passenger"/>
    <stop duration="11440" actType="singing"/>
  </person>
  <person id="p82" depart="0.00">
    <personTrip from="133525687#1" to="-331874178" line="ANY" modes="public"/>
    <personTrip from="-331874178" to="-94166194#1" line="ANY" vTypes="motorcycle"/>
    <stop duration="7492" actType="singing"/>
  </person>
  <person id="p83" depart="0.00">
    <personTrip from="-25973410#1" to="-31193223#1" line="ANY" vTypes="passenger"/>
    <stop duration="4806" actType="singing"/>
  </person>
  <person id="p84" depart="0.00">
    <personTrip from="4807772#1" to="133525687#1" line="ANY" vTypes="motorcycle"/>
    <stop duration="32900" actType="singing"/>
  </person>
  <person id="p85" depart="0.00">
    <personTrip from="4807772#1" to="-273990573#1" line="ANY" vTypes="bicycle"/>
    <stop duration="7263" actType="singing"/>
  </person>
  <person id="p86" depart="0.00">
    <personTrip from="23320823#2" to="-4811453#6" line="ANY" modes="public"/>
    <stop duration="7196" actType="singing"/>
  </person>
  <person id="p87" depart="0.00">
    <personTrip from="379532780" to="159822898" line="ANY" modes="public"/>
    <stop duration="28436" actType="singing"/>
  </person>
  <person id="p88" depart="0.00">
    <personTrip from="404783325" to="-13881857#1" line="ANY" modes="public"/>
    <stop duration="5320" actType="singing"/>
  </person>
  <person id="p89" depart="0.00">
    <personTrip from="23147576#0" to="-548460251" line="ANY" modes="public"/>
    <stop duration="5420" actType="singing"/>
  </person>
  <person id="p90" depart="0.00">
    <personTrip from="591252085" to="1219280688" line="ANY" modes="public"/>
    <stop duration="35979" actType="singing"/>
  </person>
  <person id="p91" depart="0.00">
    <personTrip from="931172049" to="404783325" line="ANY" vTypes="bicycle"/>
    <stop duration="30258" actType="singing"/>
  </person>
  <person id="p92" depart="0.00">
    <personTrip from="865348450" to="672266102#1" line="ANY" modes="public"/>
    <personTrip from="672266102#1" to="931172049" line="ANY" vTypes="passenger"/>
    <stop duration="1014" actType="singing"/>
  </person>
  <person id="p93" depart="0.00">
    <personTrip from="401262922#3" to="1178661590" line="ANY" modes="public"/>
    <stop duration="1744" actType="singing"/>
  </person>
  <person id="p94" depart="0.00">
    <personTrip from="-195959129#1" to="-13881857#1" line="ANY" modes="public"/>
    <stop duration="4789" actType="singing"/>
  </person>
  <person id="p95" depart="0.00">
    <personTrip from="24994574#1" to="865348450" line="ANY" vTypes="motorcycle"/>
    <stop duration="28383" actType="singing"/>
  </person>
  <person id="p96" depart="0.00">
    <personTrip from="-195959129#1" to="23147576#0" line="ANY" vTypes="bicycle"/>
    <stop duration="2176" actType="singing"/>
  </person>
  <person id="p97" depart="0.00">
    <personTrip from="1168323015#1" to="317594566#1" line="ANY" modes="public"/>
    <stop duration="29330" actType="singing"/>
  </person>
  <person id="p98" depart="0.00">
    <personTrip from="1168323015#1" to="-130528066#1" line="ANY" modes="public"/>
    <stop duration="8026" actType="singing"/>
  </person>
  <person id="p99" depart="0.00">
    <personTrip from="404783325" to="1004927199" line="ANY" modes="public"/>
    <stop duration="4699" actType="singing"/>
  </person>
  <person id="p100" depart="0.00">
    <personTrip from="303259035#4" to="31626956#8" line="ANY" modes="public"/>
    <stop duration="7030" actType="singing"/>
  </person>
  <person id="p101" depart="0.00">
    <personTrip from="23551694#1" to="24447759#1" line="ANY" modes="public"/>
    <personTrip from="24447759#1" to="23205595" line="ANY" vTypes="bicycle"/>
    <stop duration="6514" actType="singing"/>
  </person>
  <person id="p102" depart="0.00">
    <personTrip from="931172049" to="-283022107#4" line="ANY" modes="public"/>
    <stop duration="7345" actType="singing"/>
  </person>
  <person id="p103" depart="0.00">
    <personTrip from="1168323015#1" to="281967827" line="ANY" vTypes="passenger"/>
    <stop duration="7020" actType="singing"/>
  </person>
  <person id="p104" depart="0.00">
    <personTrip from="1219280688" to="33001837" line="ANY" modes="public"/>
    <stop duration="4923" actType="singing"/>
  </person>
  <person id="p105" depart="0.00">
    <personTrip from="23551694#1" to="-272550293" line="ANY" modes="public"/>
    <personTrip from="-272550293" to="317594581" line="ANY" vTypes="motorcycle"/>
    <stop duration="4657" actType="singing"/>
  </person>
  <person id="p106" depart="0.00">
    <personTrip from="591252085" to="-13881857#1" line="ANY" modes="public"/>
    <stop duration="6190" actType="singing"/>
  </person>
  <person id="p107" depart="0.00">
    <personTrip from="148840345#5" to="688058462" line="ANY" modes="public"/>
    <stop duration="7175" actType="singing"/>
  </person>
  <person id="p108" depart="0.00">
    <personTrip from="200692272" to="538359001#0" line="ANY" modes="public"/>
    <personTrip from="538359001#0" to="-195959129#1" line="ANY" vTypes="passenger"/>
    <stop duration="31181" actType="singing"/>
  </person>
  <person id="p109" depart="0.00">
    <personTrip from="865348450" to="116338413#2" line="ANY" modes="public"/>
    <stop duration="4441" actType="singing"/>
  </person>
  <person id="p110" depart="0.00">
    <personTrip from="4807772#1" to="23386382" line="ANY" vTypes="motorcycle"/>
    <stop duration="6298" actType="singing"/>
  </person>
  <person id="p111" depart="0.00">
    <personTrip from="1178661590" to="-25576697#7" line="ANY" modes="public"/>
    <personTrip from="-25576697#7" to="865348450" line="ANY" vTypes="passenger"/>
    <stop duration="30384" actType="singing"/>
  </person>
  <person id="p112" depart="0.00">
    <personTrip from="342553326#0" to="401262922#3" line="ANY" modes="public"/>
    <stop duration="4738" actType="singing"/>
  </person>
  <person id="p113" depart="0.00">
    <personTrip from="-195959129#1" to="185953704#3" line="ANY" modes="public"/>
    <personTrip from="185953704#3" to="1178661590" line="ANY" vTypes="motorcycle"/>
    <stop duration="1186" actType="singing"/>
  </person>
  <person id="p114" depart="0.00">
    <personTrip from="404783325" to="-202555475#7" line="ANY" modes="public"/>
    <personTrip from="-202555475#7" to="1178661590" line="ANY" vTypes="passenger"/>
    <stop duration="1800" actType="singing"/>
  </person>
  <person id="p115" depart="0.00">
    <personTrip from="591252085" to="23275244#2" line="ANY" vTypes="motorcycle"/>
    <stop duration="10176" actType="singing"/>
  </person>
  <person id="p116" depart="0.00">
    <personTrip from="23275244#2" to="404790254" line="ANY" modes="public"/>
    <stop duration="5028" actType="singing"/>
  </person>
  <person id="p117" depart="0.00">
    <personTrip from="1219280688" to="23147576#0" line="ANY" modes="public"/>
    <stop duration="1984" actType="singing"/>
  </person>
  <person id="p118" depart="0.00">
    <personTrip from="865348450" to="23032787#2" line="ANY" modes="public"/>
    <stop duration="5350" actType="singing"/>
  </person>
  <person id="p119" depart="0.00">
    <personTrip from="24994574#1" to="224106070#4" line="ANY" vTypes="passenger"/>
    <stop duration="6737" actType="singing"/>
  </person>
  <person id="p120" depart="0.00">
    <personTrip from="133525687#1" to="4807772#1" line="ANY" modes="public"/>
    <stop duration="987" actType="singing"/>
  </person>
  <person id="p121" depart="0.00">
    <personTrip from="23320823#2" to="-355357507" line="ANY" modes="public"/>
    <personTrip from="-355357507" to="1219280688" line="ANY" vTypes="motorcycle"/>
    <stop duration="35263" actType="singing"/>
  </person>
  <person id="p122" depart="0.00">
    <personTrip from="23275244#2" to="26684135#1" line="ANY" modes="public"/>
    <stop duration="6446" actType="singing"/>
  </person>
  <person id="p123" depart="0.00">
    <personTrip from="379532780" to="23999868#9" line="ANY" modes="public"/>
    <personTrip from="23999868#9" to="-22910596#2" line="ANY" vTypes="motorcycle"/>
    <stop duration="31192" actType="singing"/>
  </person>
  <person id="p124" depart="0.00">
    <personTrip from="303259035#4" to="23032774" line="ANY" modes="public"/>
    <personTrip from="23032774" to="149650133#1" line="ANY" vTypes="bicycle"/>
    <stop duration="6008" actType="singing"/>
  </person>
  <person id="p125" depart="0.00">
    <personTrip from="1178661590" to="25140859#4" line="ANY" modes="public"/>
    <stop duration="7139" actType="singing"/>
  </person>
  <person id="p126" depart="0.00">
    <personTrip from="23320823#2" to="591252085" line="ANY" modes="public"/>
    <stop duration="693" actType="singing"/>
  </person>
  <person id="p127" depart="0.00">
    <personTrip from="-13881857#1" to="317594566#1" line="ANY" vTypes="motorcycle"/>
    <stop duration="32327" actType="singing"/>
  </person>
  <person id="p128" depart="0.00">
    <personTrip from="148840345#5" to="317594566#1" line="ANY" modes="public"/>
    <stop duration="31857" actType="singing"/>
  </person>
  <person id="p129" depart="0.00">
    <personTrip from="24994574#1" to="23320823#2" line="ANY" vTypes="bicycle"/>
    <stop duration="9270" actType="singing"/>
  </person>
  <person id="p130" depart="0.00">
    <personTrip from="-13881857#1" to="-23220051#0" line="ANY" modes="public"/>
    <stop duration="5721" actType="singing"/>
  </person>
  <person id="p131" depart="0.00">
    <personTrip from="53563630#1" to="-375731071" line="ANY" modes="public"/>
    <stop duration="7549" actType="singing"/>
  </person>
  <person id="p132" depart="0.00">
    <personTrip from="133525687#1" to="1052309951#2" line="ANY" modes="public"/>
    <stop duration="4507" actType="singing"/>
  </person>
  <person id="p133" depart="0.00">
    <personTrip from="23320823#2" to="404783325" line="ANY" modes="public"/>
    <stop duration="29574" actType="singing"/>
  </person>
  <person id="p134" depart="0.00">
    <personTrip from="342553326#0" to="350217704#3" line="ANY" modes="public"/>
    <personTrip from="350217704#3" to="-518394105#2" line="ANY" vTypes="passenger"/>
    <stop duration="4770" actType="singing"/>
  </person>
  <person id="p135" depart="0.00">
    <personTrip from="-195959129#1" to="-548460251" line="ANY" modes="public"/>
    <stop duration="4950" actType="singing"/>
  </person>
  <person id="p136" depart="0.00">
    <personTrip from="23551694#1" to="342553326#0" line="ANY" modes="public"/>
    <stop duration="31650" actType="singing"/>
  </person>
  <person id="p137" depart="0.00">
    <personTrip from="865348450" to="61420263#0" line="ANY" vTypes="bicycle"/>
    <stop duration="5934" actType="singing"/>
  </person>
  <person id="p138" depart="0.00">
    <personTrip from="317594566#1" to="-255239291" line="ANY" modes="public"/>
    <personTrip from="-255239291" to="321218948#1" line="ANY" vTypes="bicycle"/>
    <stop duration="5797" actType="singing"/>
  </person>
  <person id="p139" depart="0.00">
    <personTrip from="342553326#0" to="53563630#1" line="ANY" modes="public"/>
    <personTrip from="53563630#1" to="53563630#1" line="ANY" vTypes="passenger"/>
    <stop duration="9872" actType="singing"/>
  </person>
  <person id="p140" depart="0.00">
    <personTrip from="404783325" to="-202555475#7" line="ANY" modes="public"/>
    <personTrip from="-202555475#7" to="61420263#0" line="ANY" vTypes="motorcycle"/>
    <stop duration="6778" actType="singing"/>
  </person>
  <person id="p141" depart="0.00">
    <personTrip from="148840345#5" to="387401267#1" line="ANY" modes="public"/>
    <personTrip from="387401267#1" to="159822898" line="ANY" vTypes="passenger"/>
    <stop duration="32874" actType="singing"/>
  </person>
  <person id="p142" depart="0.00">
    <personTrip from="-13881857#1" to="23147576#0" line="ANY" vTypes="motorcycle"/>
    <stop duration="1367" actType="singing"/>
  </person>
  <person id="p143" depart="0.00">
    <personTrip from="23147576#0" to="-23220051#0" line="ANY" vTypes="motorcycle"/>
    <stop duration="5526" actType="singing"/>
  </person>
  <person id="p144" depart="0.00">
    <personTrip from="303259035#4" to="-36128955#1" line="ANY" modes="public"/>
    <personTrip from="-36128955#1" to="163491638#0" line="ANY" vTypes="bicycle"/>
    <stop duration="8139" actType="singing"/>
  </person>
  <person id="p145" depart="0.00">
    <personTrip from="1168323015#1" to="200692272" line="ANY" modes="public"/>
    <stop duration="1332" actType="singing"/>
  </person>
  <person id="p146" depart="0.00">
    <personTrip from="23551694#1" to="-717160903#1" line="ANY" modes="public"/>
    <personTrip from="-717160903#1" to="133525687#1" line="ANY" vTypes="motorcycle"/>
    <stop duration="34386" actType="singing"/>
  </person>
  <person id="p147" depart="0.00">
    <personTrip from="159822898" to="23551694#1" line="ANY" modes="public"/>
    <stop duration="1316" actType="singing"/>
  </person>
  <person id="p148" depart="0.00">
    <personTrip from="1219280688" to="37181840#2" line="ANY" modes="public"/>
    <personTrip from="37181840#2" to="931172049" line="ANY" vTypes="bicycle"/>
    <stop duration="805" actType="singing"/>
  </person>
  <person id="p149" depart="0.00">
    <personTrip from="-22910596#2" to="53563630#1" line="ANY" modes="public"/>
    <stop duration="10084" actType="singing"/>
  </person>
  <person id="p150" depart="0.00">
    <personTrip from="148840345#5" to="-387401267#2" line="ANY" modes="public"/>
    <personTrip from="-387401267#2" to="23320823#2" line="ANY" vTypes="passenger"/>
    <stop duration="7838" actType="singing"/>
  </person>
  <person id="p151" depart="0.00">
    <personTrip from="401262922#3" to="-4813442" line="ANY" modes="public"/>
    <stop duration="1212" actType="singing"/>
  </person>
  <person id="p152" depart="0.00">
    <personTrip from="404783325" to="379532780" line="ANY" modes="public"/>
    <stop duration="11220" actType="singing"/>
  </person>
  <person id="p153" depart="0.00">
    <personTrip from="133525687#1" to="281956705#3" line="ANY" modes="public"/>
    <personTrip from="281956705#3" to="4807772#1" line="ANY" vTypes="passenger"/>
    <stop duration="1925" actType="singing"/>
  </person>
  <person id="p154" depart="0.00">