<?xml version="1.0" ?>
<routes>
  <vType id="passenger" vClass="passenger"/>
  <vType id="bicycle" vClass="bicycle"/>
  <vType id="motorcycle" vClass="motorcycle"/>
  <person id="p0" depart="0.00">
    <personTrip from="269782615#0" to="23151398" line="ANY" modes="public"/>
    <stop duration="28" actType="singing"/>
    <personTrip from="23151398" to="387401267#7" line="ANY" modes="public"/>
    <stop duration="91" actType="singing"/>
    <personTrip from="387401267#7" to="23151398" line="ANY" vTypes="motorcycle"/>
    <stop duration="29" actType="singing"/>
  </person>
</routes>
