<routes>
  <person id="p0" depart="0.00">
    <personTrip from="688219972" to="25708826#1" line="ANY" modes="public"/>
    <stop duration="11080" actType="singing"/>
  </person>
  <person id="p1" depart="0.00">
    <personTrip from="688219972" to="-10442531#13" line="ANY" modes="public"/>
    <stop duration="1685" actType="singing"/>
  </person>
  <person id="p2" depart="0.00">
    <personTrip from="688219972" to="-106674866#1" line="ANY" modes="public"/>
    <stop duration="8007" actType="singing"/>
  </person>
  <person id="p3" depart="0.00">
    <personTrip from="688219972" to="-23275118#5" line="ANY" modes="public"/>
    <stop duration="2243" actType="singing"/>
  </person>
  <person id="p4" depart="0.00">
    <personTrip from="688219972" to="-106674866#1" line="ANY" modes="public"/>
    <stop duration="11688" actType="singing"/>
  </person>
</routes>
