<routes>
  <person id="p2" depart="0.00">
    <personTrip from="-237985891#1" to="44829958#2" line="ANY" vTypes="bicycle"/>
    <stop duration="8378" actType="singing"/>
    <personTrip from="1180976329" to="-237985891#1" line="ANY" modes="public"/>
    <stop duration="8010" actType="singing"/>
    <personTrip from="-237985891#1" to="399038513#2" line="ANY" modes="public"/>
    <personTrip from="399038513#2" to="1180976329" line="ANY" vTypes="passenger"/>
    <stop duration="846" actType="singing"/>
  </person>
  <person id="p5" depart="0.00">
    <personTrip from="-286146962#0" to="-23999868#9" line="ANY" modes="public"/>
    <stop duration="14022" actType="singing"/>
    <personTrip from="-10442531#10" to="-286146962#0" line="ANY" modes="public"/>
    <stop duration="9671" actType="singing"/>
    <personTrip from="-23551739#4" to="-10442531#10" line="ANY" modes="public"/>
    <stop duration="844" actType="singing"/>
  </person>
  <person id="p6" depart="0.00">
    <personTrip from="-237985891#1" to="-431480689#0" line="ANY" modes="public"/>
    <stop duration="801" actType="singing"/>
    <personTrip from="1108004519" to="-431480689#0" line="ANY" modes="public"/>
    <stop duration="813" actType="singing"/>
    <personTrip from="-431480689#0" to="1108004519" line="ANY" modes="public"/>
    <stop duration="14602" actType="singing"/>
  </person>
  <person id="p9" depart="0.00">
    <personTrip from="-40523635" to="1086199879#1" line="ANY" modes="public"/>
    <personTrip from="1086199879#1" to="-23551739#4" line="ANY" vTypes="passenger"/>
    <stop duration="4205" actType="singing"/>
    <personTrip from="-23551739#4" to="44829958#2" line="ANY" vTypes="motorcycle"/>
    <stop duration="8827" actType="singing"/>
    <personTrip from="-23551739#4" to="-40523635" line="ANY" vTypes="passenger"/>
    <stop duration="1103" actType="singing"/>
  </person>
  <person id="p0" depart="0.00">
    <personTrip from="38507298#3" to="-185953704#1" line="ANY" modes="public"/>
    <stop duration="28203" actType="singing"/>
    <personTrip from="-23551739#4" to="38507298#3" line="ANY" vTypes="passenger"/>
    <stop duration="637" actType="singing"/>
    <personTrip from="-185953704#1" to="38507298#3" line="ANY" modes="public"/>
    <stop duration="641" actType="singing"/>
  </person>
  <person id="p3" depart="0.00">
    <personTrip from="-237985891#1" to="-67601522#0" line="ANY" modes="public"/>
    <stop duration="33352" actType="singing"/>
    <personTrip from="1180976329" to="-237985891#1" line="ANY" modes="public"/>
    <stop duration="5120" actType="singing"/>
    <personTrip from="-67601522#0" to="1180976329" line="ANY" vTypes="bicycle"/>
    <stop duration="902" actType="singing"/>
  </person>
  <person id="p7" depart="0.00">
    <personTrip from="38507298#3" to="98634622" line="ANY" modes="public"/>
    <stop duration="18532" actType="singing"/>
    <personTrip from="-237985891#1" to="38507298#3" line="ANY" vTypes="motorcycle"/>
    <stop duration="671" actType="singing"/>
    <personTrip from="98634622" to="-237985891#1" line="ANY" vTypes="bicycle"/>
    <stop duration="5339" actType="singing"/>
  </person>
  <person id="p1" depart="0.00">
    <personTrip from="-23551739#4" to="-37432224#3" line="ANY" vTypes="passenger"/>
    <stop duration="7626" actType="singing"/>
    <personTrip from="-37432224#3" to="236780375#2" line="ANY" vTypes="motorcycle"/>
    <stop duration="31724" actType="singing"/>
    <personTrip from="236780375#2" to="192727738" line="ANY" vTypes="bicycle"/>
    <stop duration="868" actType="singing"/>
  </person>
  <person id="p8" depart="0.00">
    <personTrip from="39551111" to="32819877#6" line="ANY" modes="public"/>
    <personTrip from="32819877#6" to="-237985891#1" line="ANY" vTypes="passenger"/>
    <stop duration="8372" actType="singing"/>
    <personTrip from="38507298#3" to="39551111" line="ANY" modes="public"/>
    <stop duration="234" actType="singing"/>
    <personTrip from="-237985891#1" to="38507298#3" line="ANY" vTypes="motorcycle"/>
    <stop duration="1182" actType="singing"/>
  </person>
  <person id="p4" depart="0.00">
    <personTrip from="-286146959#3" to="1180976329" line="ANY" modes="public"/>
    <stop duration="1091" actType="singing"/>
    <personTrip from="-237985891#1" to="-286146959#3" line="ANY" vTypes="motorcycle"/>
    <stop duration="29165" actType="singing"/>
    <personTrip from="1180976329" to="-286146959#3" line="ANY" vTypes="passenger"/>
    <stop duration="26759" actType="singing"/>
  </person>
</routes>
