<routes>
  <person id="p0" depart="0.00">
    <personTrip from="-231912439#0" to="5783284#2" line="ANY" modes="public"/>
    <stop duration="635" actType="singing"/>
    <personTrip from="5783284#2" to="288806327" line="ANY" vTypes="motorcycle"/>
    <stop duration="28293" actType="singing"/>
    <personTrip from="288806327" to="5783284#2" line="ANY" vTypes="passenger"/>
    <stop duration="1111" actType="singing"/>
  </person>
  <person id="p1" depart="0.00">
    <personTrip from="-25212268#1" to="-37181838#3" line="ANY" vTypes="passenger"/>
    <stop duration="7634" actType="singing"/>
    <personTrip from="-37181838#3" to="-25212268#1" line="ANY" vTypes="passenger"/>
    <stop duration="838" actType="singing"/>
    <personTrip from="-25212268#1" to="-419654735#2" line="ANY" vTypes="bicycle"/>
    <stop duration="8237" actType="singing"/>
  </person>
  <person id="p2" depart="0.00">
    <personTrip from="-191096152#0" to="688229195" line="ANY" modes="public"/>
    <personTrip from="688229195" to="-25212268#1" line="ANY" vTypes="passenger"/>
    <stop duration="2323" actType="singing"/>
    <personTrip from="-25212268#1" to="24781502#2" line="ANY" modes="public"/>
    <stop duration="6876" actType="singing"/>
    <personTrip from="24781502#2" to="-419654735#2" line="ANY" vTypes="bicycle"/>
    <stop duration="6048" actType="singing"/>
  </person>
  <person id="p3" depart="0.00">
    <personTrip from="23463898" to="-387296028#0" line="ANY" modes="public"/>
    <personTrip from="-387296028#0" to="-57392709" line="ANY" vTypes="passenger"/>
    <stop duration="642" actType="singing"/>
    <personTrip from="-57392709" to="1035471373" line="ANY" modes="public"/>
    <personTrip from="1035471373" to="23032792#3" line="ANY" vTypes="passenger"/>
    <stop duration="14722" actType="singing"/>
    <personTrip from="23032792#3" to="23463898" line="ANY" modes="public"/>
    <stop duration="9063" actType="singing"/>
  </person>
  <person id="p4" depart="0.00">
    <personTrip from="-419654735#2" to="-29230230#0" line="ANY" vTypes="bicycle"/>
    <stop duration="1385" actType="singing"/>
    <personTrip from="-29230230#0" to="-419654735#2" line="ANY" vTypes="motorcycle"/>
    <stop duration="6491" actType="singing"/>
    <personTrip from="-419654735#2" to="-29230230#0" line="ANY" modes="public"/>
    <stop duration="1081" actType="singing"/>
  </person>
</routes>
