<routes>
  <person id="p0" depart="0.00">
    <personTrip from="26738309" to="317594514" line="ANY" modes="public"/>
    <stop duration="33654" actType="singing"/>
    <personTrip from="222756662" to="26738309" line="ANY" modes="public"/>
    <stop duration="6581" actType="singing"/>
    <personTrip from="317594514" to="222756662" line="ANY" modes="public"/>
    <stop duration="6612" actType="singing"/>
  </person>
  <person id="p1" depart="0.00">
    <personTrip from="1201878110#0" to="26738309" line="ANY" modes="public"/>
    <stop duration="7489" actType="singing"/>
    <personTrip from="-298056909#0" to="1201878110#0" line="ANY" modes="public"/>
    <stop duration="32232" actType="singing"/>
    <personTrip from="26738309" to="-298056909#0" line="ANY" vTypes="bicycle"/>
    <stop duration="744" actType="singing"/>
  </person>
  <person id="p2" depart="0.00">
    <personTrip from="-231875737#1" to="5108622#3" line="ANY" vTypes="bicycle"/>
    <stop duration="11485" actType="singing"/>
    <personTrip from="5108622#3" to="26738309" line="ANY" modes="public"/>
    <stop duration="4202" actType="singing"/>
    <personTrip from="26738309" to="-231875737#1" line="ANY" vTypes="passenger"/>
    <stop duration="26653" actType="singing"/>
  </person>
  <person id="p3" depart="0.00">
    <personTrip from="375731100" to="26738309" line="ANY" modes="public"/>
    <stop duration="4768" actType="singing"/>
    <personTrip from="26738309" to="375731100" line="ANY" modes="public"/>
    <stop duration="1200" actType="singing"/>
    <personTrip from="26738309" to="-272550293" line="ANY" modes="public"/>
    <personTrip from="-272550293" to="31155484#3" line="ANY" vTypes="motorcycle"/>
    <stop duration="13139" actType="singing"/>
  </person>
  <person id="p4" depart="0.00">
    <personTrip from="26738309" to="-489156419" line="ANY" modes="public"/>
    <stop duration="788" actType="singing"/>
    <personTrip from="-489156419" to="26738309" line="ANY" vTypes="bicycle"/>
    <stop duration="7742" actType="singing"/>
    <personTrip from="26738309" to="180784446#0" line="ANY" modes="public"/>
    <personTrip from="180784446#0" to="-489156419" line="ANY" vTypes="motorcycle"/>
    <stop duration="776" actType="singing"/>
  </person>
</routes>
