<?xml version="1.0" encoding="UTF-8"?>

<!-- generated on 2024-03-26 09:27:08.242167 by ptlines2flows.py v1_19_0+0000-baa66a0f364
<configuration>
    <net-file value="crr.net.xml"/>
    <ptlines-file value="ptlines.xml"/>
    <ptstops-file value="additional.xml"/>
    <period value="1200.0"/>
    <end value="36000000.0"/>
    <ignore-errors value="True"/>
    <vtype-prefix value="pt_"/>
    <verbose value="True"/>
</configuration>
-->

<routes xmlns:xsi="http://www.w3.org/2001/XMLSchema-instance" xsi:noNamespaceSchemaLocation="http://sumo.dlr.de/xsd/routes_file.xsd">
    <vType id="pt_bus" vClass="bus"/>
    <vType id="pt_tram" vClass="tram"/>
    <vType id="pt_train" vClass="rail"/>
    <vType id="pt_subway" vClass="rail_urban"/>
    <vType id="pt_light_rail" vClass="rail_urban"/>
    <vType id="pt_monorail" vClass="rail_urban"/>
    <vType id="pt_trolleybus" vClass="bus"/>
    <vType id="pt_minibus" vClass="bus"/>
    <vType id="pt_share_taxi" vClass="taxi"/>
    <vType id="pt_aerialway" vClass="rail_urban" length="2.5" width="2" personCapacity="4"/>
    <vType id="pt_ferry" vClass="ship"/>
    <route id="pt_bus_114:5" color="187,148,184" edges="-390841675 4986037#2 356730083#0 356730083#1 350074625 396566184#0 396566184#1 396566184#2 29286186#0 29286186#1 122574095" >
        <stop busStop="-420605059" duration="20" until="37.0"/> <!-- Lobenroter Hof -->
        <stop busStop="3939796480" duration="20" until="208.0"/> <!-- Lobenrot Ort -->
    </route>
    <route id="pt_light_rail_U13:0" color="237,165,180" edges="673171637 172027782#0 172027782#1 172027782#2 172027782#3 172027782#5" >
        <stop busStop="4165943332" duration="20" until="39.0"/> <!-- Hedelfingen -->
        <stop busStop="26407025" duration="20" until="118.0"/> <!-- Hedelfinger Straße -->
        <stop busStop="26407024" duration="20" until="187.0"/> <!-- Wangen Marktplatz -->
        <stop busStop="1749738363" duration="20" until="249.0"/> <!-- Wasenstraße -->
    </route>
    <route id="pt_light_rail_U13:1" color="237,165,180" edges="68552415#0 68552415#4 68552415#6 68552415#7 68552415#8 172027783" >
        <stop busStop="279915707" duration="20" until="46.0"/> <!-- Wasenstraße -->
        <stop busStop="279915677" duration="20" until="109.0"/> <!-- Wangen Marktplatz -->
        <stop busStop="279915667" duration="20" until="178.0"/> <!-- Hedelfinger Straße -->
        <stop busStop="279930071" duration="20" until="254.0"/> <!-- Hedelfingen -->
    </route>
    <route id="pt_light_rail_U9:0" color="255,213,3" edges="673171637 172027782#0 172027782#1 172027782#2 172027782#3 172027782#5" >
        <stop busStop="4165943332" duration="20" until="39.0"/> <!-- Hedelfingen -->
        <stop busStop="26407025" duration="20" until="118.0"/> <!-- Hedelfinger Straße -->
        <stop busStop="26407024" duration="20" until="187.0"/> <!-- Wangen Marktplatz -->
    </route>
    <route id="pt_bus_61:1" color="252,103,177" edges="431444776#1 431444780#0 431444780#1 431444780#2 431444780#3 548813064#1 548813063 29462298#0 29462298#1 29462298#2 -548669406 -548669407 -548669410#0 -317544600#2 -317544600#1 -317544600#0 -288806326#2 -288806326#1 -288806326#0 -5782992#1 -5782992#0 5783099#0 5783099#1 5783099#2 288808359 288806325#0 288806325#1 36989666 548626555 -36990115 -676917368#0" >
        <stop busStop="269253233" duration="20" until="34.0"/> <!-- Haus am Weinberg -->
        <stop busStop="895825832" duration="20" until="96.0"/> <!-- Ebniseestraße -->
        <stop busStop="-5300400686" duration="20" until="196.0"/> <!-- Bergstaffelstraße -->
        <stop busStop="-895825744" duration="20" until="280.0"/> <!-- Obertürkheim Bahnhof -->
    </route>
    <route id="pt_light_rail_U9:1" color="255,213,3" edges="68552415#0 68552415#4 68552415#6 68552415#7 68552415#8 172027783" >
        <stop busStop="279915707" duration="20" until="46.0"/> <!-- Wasenstraße -->
        <stop busStop="279915677" duration="20" until="109.0"/> <!-- Wangen Marktplatz -->
        <stop busStop="279915667" duration="20" until="178.0"/> <!-- Hedelfinger Straße -->
        <stop busStop="279930071" duration="20" until="254.0"/> <!-- Hedelfingen -->
    </route>
    <route id="pt_train_RE_5:0" edges="156199094#3 102848475#1 102848507#0 102848507#1 460942121#0 460942121#1 25423242#1 85959749#1 68906765 70395557#1 48316096#2" >
        <stop busStop="2661523902" duration="20" until="66.0"/> <!-- Esslingen (Neckar) -->
        <stop busStop="3068257018" duration="20" until="287.0"/> <!-- Stuttgart-Obertürkheim -->
    </route>
    <route id="pt_bus_816:1" edges="-294067066#1 -294067066#0 -435365553#2 -435365553#1 -435365553#0 -75077806 163301140#0 163301140#1 163301140#2 163301140#3 163301140#4 163301140#6 75077804#0 75077804#1 75077804#2 75077804#3 75077804#4 343305746#1 343305746#2 343305746#3 343305746#4 343305746#5 -12787707#1 -12787707#0 -875800261#3 -875800261#2 -875800261#1 -875800261#0 -35327641#2 -35327641#1 -35327641#0 -379988289#2 -379988289#1 -379988289#0 -157693253#2 -157693253#1 -157693253#0 -237134496#12 -237134496#11 -237134496#10 -237134496#9 -237134496#8 -237134496#7 -237134496#6 -237134496#5 -237134496#4 -237134496#3 -237134496#2 -237134496#1 -237134496#0 -432904395 -25117945#1 -25117945#0 -432904397#4 -432904397#3 -432904397#2 -432904397#1 -432904397#0 -432904396 -29146462#4 -29146462#3 -29146462#2 -29146462#1 -29146462#0 29146499#0 29146499#1 29146499#2" >
        <stop busStop="-6260408371" duration="20" until="34.0"/> <!-- Ruit Scharnhäuser Straße -->
        <stop busStop="6262814783" duration="20" until="184.0"/> <!-- Ruit Kirche -->
        <stop busStop="-4379712496" duration="20" until="257.0"/> <!-- Ruit -->
        <stop busStop="-886304580" duration="20" until="353.0"/> <!-- Ruit Im Kapf -->
        <stop busStop="320617737" duration="20" until="459.0"/> <!-- Ruit Krankenhaus -->
    </route>
    <route id="pt_bus_61:0" color="252,103,177" edges="-540190677 -26263195#0 25460405 -26245946#1 -26245946#0 548626550 36989717#0 36989717#1 -288806325#1 -288806325#0 288806325#0 288806325#1 36989666 548626555 36990049#0 36990049#1 26245946#0 26245946#1 -26245946#1 -26245946#0 548626550 36989717#0 36989717#1 -288806325#1 -288806325#0 -288808359 -5783099#2 -5783099#1 -5783099#0 5782992#0 5782992#1 288806326#0 288806326#1 288806326#2 317544600#0 317544600#1 317544600#2 317544600#3 548669410#1 548669406 548669409 29462349#1 -548813064#1 -548813064#0 -431444780#2 -431444780#1 -431444780#0 -431444776#1 -431444776#0 -548669654#8 -548669654#7 -548669654#6 -548669654#5 -548669654#4 -548669654#3 -548669654#2 -548669654#1 -548669654#0 176329394 -24779203#1 -24779203#0" >
        <stop busStop="-5226460705" duration="20" until="37.0"/> <!-- Obertürkheim Bahnhof -->
        <stop busStop="430160899" duration="20" until="105.0"/> <!-- None -->
        <stop busStop="282837104" duration="20" until="185.0"/> <!-- Obertürkheim Bahnhof (Göppinger Straße) -->
        <stop busStop="5300400686" duration="20" until="254.0"/> <!-- Bergstaffelstraße -->
        <stop busStop="895825813" duration="20" until="315.0"/> <!-- Ebniseestraße -->
        <stop busStop="-269253233" duration="20" until="374.0"/> <!-- Haus am Weinberg -->
        <stop busStop="-895825801" duration="20" until="465.0"/> <!-- None -->
    </route>
    <route id="pt_light_rail_U8:1" color="195,180,125" edges="26946520#0 26946520#1 26946517#1 26946517#2 40985104#1 40985104#2 40985104#3 40985104#4" >
        <stop busStop="295255872" duration="20" until="53.0"/> <!-- Ruit -->
        <stop busStop="295255894" duration="20" until="128.0"/> <!-- Ruit Zinsholz -->
        <stop busStop="295255933" duration="20" until="203.0"/> <!-- Parksiedlung -->
        <stop busStop="499482917" duration="20" until="271.0"/> <!-- Scharnhauser Park -->
        <stop busStop="499482936" duration="20" until="343.0"/> <!-- Scharnhauser Park Kreuzbrunnen -->
        <stop busStop="499482984" duration="20" until="438.0"/> <!-- Nellingen Technische Akademie -->
        <stop busStop="2015375187" duration="20" until="498.0"/> <!-- Nellingen Ostfildern -->
    </route>
    <route id="pt_bus_816:0" edges="29146499#2 161599839#1 35818988 35880306 644467860 29146462#0 29146462#1 29146462#2 29146462#3 29146462#4 432904396 432904397#0 432904397#1 432904397#2 432904397#3 432904397#4 25117945#0 25117945#1 432904395 237134496#0 237134496#1 237134496#2 237134496#3 237134496#4 237134496#5 237134496#6 237134496#7 237134496#8 237134496#9 237134496#10 237134496#11 237134496#12 157693253#0 157693253#1 157693253#2 379988289#0 379988289#1 379988289#2 35327641#0 35327641#1 35327641#2 875800261#0 875800261#1 875800261#2 875800261#3 12787707#0 12787707#1 -343305746#5 -343305746#4 -343305746#3 -343305746#2 -343305746#1 -343305746#0 -75077804#3 -75077804#2 -75077804#1 -75077804#0 -163301140#6 -163301140#5 -163301140#3 -163301140#2 -163301140#1 -163301140#0 75077806 435365553#0 435365553#1 435365553#2 294067066#0 294067066#1 294067066#2 294067066#3 294067066#4 294067066#5 294067066#6 294067066#7 294067066#8 294067066#9 294067066#10" >
        <stop busStop="320617737" duration="20" until="39.0"/> <!-- Ruit Krankenhaus -->
        <stop busStop="886304632" duration="20" until="167.0"/> <!-- Ruit Im Kapf -->
        <stop busStop="886304631" duration="20" until="249.0"/> <!-- Ruit -->
        <stop busStop="-66830400" duration="20" until="362.0"/> <!-- Ruit Kirche -->
        <stop busStop="6260408369" duration="20" until="507.0"/> <!-- Ruit Scharnhäuser Straße -->
    </route>
    <route id="pt_bus_65:1" color="255,106,32" edges="27607327#0 27607327#1 -27607327#1 -27607327#0 27607327#0 27607327#1 569642543 161583692#0 161583692#1 161583692#2 161583692#3 163491634 763418587 278026024#0 278026024#1 29559568#0 29559568#1 29559568#2 29555966 161583680 243216859 243216872#0 243216872#1 243216872#2 243216872#3 243216853 29555873#1 244530981#0 244530981#1 244530981#2 244576556 548822668 29556306#0 29556306#1 29556306#2 548822665 548822666 237155758 24780159#0 24780159#1 316814479 35359315#0 35359315#1 35359315#2 431480688 288806327 431444812 25642410#1 25642410#2 5783099#0 5783099#1 5783099#2 288808359 288806325#0 288806325#1 36989666 548626555 -36990115 -676917368#0" >
        <stop busStop="895825781" duration="20" until="34.0"/> <!-- None -->
        <stop busStop="282836158" duration="20" until="111.0"/> <!-- Ährenweg -->
        <stop busStop="895825803" duration="20" until="228.0"/> <!-- Hedelfingen -->
        <stop busStop="895825839" duration="20" until="365.0"/> <!-- Otto-Hirsch-Brücken -->
        <stop busStop="-895825744" duration="20" until="481.0"/> <!-- Obertürkheim Bahnhof -->
    </route>
    <route id="pt_light_rail_U7:1" color="14,180,141" edges="26946520#0 26946520#1 26946517#1 26946517#2 40985104#1 40985104#2 40985104#3 40985104#4" >
        <stop busStop="295255872" duration="20" until="44.0"/> <!-- Ruit -->
        <stop busStop="295255894" duration="20" until="119.0"/> <!-- Ruit Zinsholz -->
        <stop busStop="295255933" duration="20" until="194.0"/> <!-- Parksiedlung -->
        <stop busStop="499482917" duration="20" until="304.0"/> <!-- Scharnhauser Park -->
        <stop busStop="499482936" duration="20" until="378.0"/> <!-- Scharnhauser Park Kreuzbrunnen -->
        <stop busStop="499482984" duration="20" until="474.0"/> <!-- Nellingen Technische Akademie -->
        <stop busStop="2015375187" duration="20" until="534.0"/> <!-- Nellingen Ostfildern -->
    </route>
    <route id="pt_light_rail_U8:0" color="195,180,125" edges="89344777#0 89344777#3 89344777#4 89344777#5 89344777#6 26946516#1" >
        <stop busStop="253915614" duration="20" until="46.0"/> <!-- Nellingen Ostfildern -->
        <stop busStop="271464257" duration="20" until="106.0"/> <!-- Nellingen Technische Akademie -->
        <stop busStop="66828113" duration="20" until="201.0"/> <!-- Scharnhauser Park Kreuzbrunnen -->
        <stop busStop="66828122" duration="20" until="269.0"/> <!-- Scharnhauser Park -->
        <stop busStop="270196725" duration="20" until="339.0"/> <!-- Parksiedlung -->
        <stop busStop="270599198" duration="20" until="414.0"/> <!-- Ruit Zinsholz -->
        <stop busStop="113591455" duration="20" until="491.0"/> <!-- Ruit -->
    </route>
    <route id="pt_light_rail_U7:0" color="14,180,141" edges="89344777#0 89344777#3 89344777#4 89344777#5 89344777#6 26946516#1" >
        <stop busStop="253915614" duration="20" until="46.0"/> <!-- Nellingen Ostfildern -->
        <stop busStop="271464257" duration="20" until="106.0"/> <!-- Nellingen Technische Akademie -->
        <stop busStop="66828113" duration="20" until="201.0"/> <!-- Scharnhauser Park Kreuzbrunnen -->
        <stop busStop="66828122" duration="20" until="269.0"/> <!-- Scharnhauser Park -->
        <stop busStop="270196725" duration="20" until="339.0"/> <!-- Parksiedlung -->
        <stop busStop="270599198" duration="20" until="414.0"/> <!-- Ruit Zinsholz -->
        <stop busStop="113591455" duration="20" until="491.0"/> <!-- Ruit -->
    </route>
    <route id="pt_bus_65:0" color="255,106,32" edges="-676917368#0 -540190677 -26263195#0 25460405 -26245946#1 -26245946#0 548626550 36989717#0 36989717#1 -288806325#1 -288806325#0 288806325#0 288806325#1 36989666 548626555 36990049#0 36990049#1 26245946#0 26245946#1 -26245946#1 -26245946#0 548626550 36989717#0 36989717#1 -288806325#1 -288806325#0 -288808359 -5783099#2 -5783099#1 -5783099#0 -25642410#2 -25642410#1 -25642410#0 -288806327 -25642408 -35359315#2 -35359315#1 -35359315#0 -316814479 -24780159#1 -24780159#0 -23062040 -548822666 -548822665 -29556306#2 -29556306#1 -29556306#0 548822667 169217571#1 244531066#0 244531066#1 244531066#2 548822664 24780172#1 244530807 243216856 169217573#1 243216863 243216867#0 243216867#1 243216867#2 569646673 29559418#0 29559418#1 29559418#2 29559418#3 -278026024#1 -278026024#0 -763418587 -163491634 -161583692#3 -161583692#2 -161583692#1 -161583692#0 -569642543 -27607327#1 -27607327#0 27607327#0 27607327#1 -27607327#1" >
        <stop busStop="-895825744" duration="20" until="38.0"/> <!-- Obertürkheim Bahnhof -->
        <stop busStop="430160899" duration="20" until="144.0"/> <!-- None -->
        <stop busStop="282837104" duration="20" until="226.0"/> <!-- Obertürkheim Bahnhof (Göppinger Straße) -->
        <stop busStop="-6501447771" duration="20" until="335.0"/> <!-- Otto-Hirsch-Brücken -->
        <stop busStop="895825756" duration="20" until="460.0"/> <!-- Hedelfingen -->
        <stop busStop="-895825842" duration="20" until="561.0"/> <!-- None -->
        <stop busStop="-282836338" duration="20" until="626.0"/> <!-- Ährenweg -->
    </route>
    <route id="pt_bus_121:0" color="51,92,113" edges="-392589607#0 -27531049#5 -27531049#4 -27531049#3 -27531049#2 -27531049#1 -27531049#0 44459823#0 44459823#1 44459823#2 207083330 -44459774#3 -44459774#2 -44459774#1 -44459774#0 94166203#1 -24447786#1 -24447786#0 -24447783#0 207210285#0 207210285#1 52595630#0 52595630#1 130569449 207210670#0 207210670#1 207210670#2 384972986 392589606#0 392589606#1 22793479 613671973 613671974 207083328#0 207083328#1 207083328#2 28675677 22793492#0 22793492#1 22793492#2 22793492#3 613655965" >
        <stop busStop="-245017149" duration="20" until="34.0"/> <!-- Oberesslingen Bahnhof (Süd) -->
        <stop busStop="-3883265541" duration="20" until="122.0"/> <!-- Schwertmühle -->
        <stop busStop="-3883265532" duration="20" until="198.0"/> <!-- Max-Planck-Straße -->
        <stop busStop="-3883265542" duration="20" until="273.0"/> <!-- Sirnauer Brücke -->
        <stop busStop="3883265543" duration="20" until="438.0"/> <!-- Sirnauer Hof -->
        <stop busStop="3883265527" duration="20" until="502.0"/> <!-- Eckenerstraße -->
        <stop busStop="3883265546" duration="20" until="575.0"/> <!-- Wolf-Hirth-Straße -->
        <stop busStop="3883265528" duration="20" until="646.0"/> <!-- Dornierstraße -->
    </route>
    <route id="pt_bus_62:0" color="24,197,244" edges="27607327#0 27607327#1 -27607327#1 -27607327#0 27607327#0 27607327#1 569642543 161583692#0 161583692#1 161583692#2 161583692#3 163491634 763418587 278026024#0 278026024#1 29559568#0 29559568#1 29559568#2 29555966 161583680 243216859 243216872#0 243216872#1 243216872#2 243216872#3 243216853 29555873#1 244530981#0 244530981#1 244530981#2 244576556 548822668 29556306#0 29556306#1 29556306#2 548822665 548822666 237155758 24780159#0 24780159#1 316814479 35359315#0 35359315#1 35359315#2 431480688 288806327 431444812 25642410#1 25642410#2 5783099#0 5783099#1 5783099#2 288808359 288806325#0 288806325#1 36989666 548626555 -36990115 -676917368#0 -540190677 -26263195#0 25460405 -192950772 -192950762 -570081633 -570081632 -570455526#0 -154230466#3 -154230466#2 -154230466#1 -154230466#0 -570449182#1 -570449182#0 -570449183#1 -570449183#0 -570432316 -570432317 -195389808#1" >
        <stop busStop="895825781" duration="20" until="35.0"/> <!-- None -->
        <stop busStop="282836158" duration="20" until="111.0"/> <!-- Ährenweg -->
        <stop busStop="895825803" duration="20" until="180.0"/> <!-- Hedelfingen -->
        <stop busStop="895825839" duration="20" until="314.0"/> <!-- Otto-Hirsch-Brücken -->
        <stop busStop="-895825744" duration="20" until="430.0"/> <!-- Obertürkheim Bahnhof -->
        <stop busStop="-278558094" duration="20" until="534.0"/> <!-- Im Mäder -->
        <stop busStop="-287332904" duration="20" until="609.0"/> <!-- Asang -->
        <stop busStop="-5484233589" duration="20" until="677.0"/> <!-- None -->
    </route>
    <route id="pt_bus_121:1" color="51,92,113" edges="-207082664 -22793492#3 -22793492#2 -22793492#1 -22793492#0 -28675677 28675676#0 28675676#1 -613671974 -613671973 -22793479 207208363#0 207208363#1 384972990#0 384972990#0-AddedOffRampEdge 384972990#1 384972990#2 228804021#0 228804021#1 207210286#0 207210286#1 24447783#0 24447783#1 24447786#1 -94166203#1 -94166203#0 44459774#1 44459774#2 44459774#3 384972992 44459767 -44459823#2 -44459823#1 -44459823#0 27531049#0 27531049#1 27531049#2 27531049#3 27531049#4 27531049#5 27531049#6 392589607#1 392589607#2 392589607#3" >
        <stop busStop="-3883265528" duration="20" until="105.0"/> <!-- Dornierstraße -->
        <stop busStop="-3883265546" duration="20" until="176.0"/> <!-- Wolf-Hirth-Straße -->
        <stop busStop="-3883265527" duration="20" until="250.0"/> <!-- Eckenerstraße -->
        <stop busStop="-3883265543" duration="20" until="314.0"/> <!-- Sirnauer Hof -->
        <stop busStop="6537655136" duration="20" until="424.0"/> <!-- Sirnauer Brücke -->
        <stop busStop="3883265532" duration="20" until="500.0"/> <!-- Max-Planck-Straße -->
        <stop busStop="3883265541" duration="20" until="577.0"/> <!-- Schwertmühle -->
        <stop busStop="287465536" duration="20" until="672.0"/> <!-- Oberesslingen Bahnhof (Süd) -->
    </route>
    <route id="pt_bus_X20:1" color="0,191,243" edges="268558821#1 342553326#0 342553326#1 316354392 675777502 105914659#0 105914659#1 105914659#2 283413805 316354387#0 316354387#1 283413806#1 -135078201#2 -135078201#1 -135078201#0 -386832703#3 -386832703#2 -386832703#1 -386832703#0 -442274138 -442274132 -169220423 23316466 378237356 442274136 442274140#0 442274140#1 29138343#0 29138343#1 488705428#0 488705428#1 488705428#2 488705428#3 -8026843 159822898 -442274142#1 -442274142#0 -1168323015#1 -1168323015#0 -787951455 -410089906 592426952 410089904 24608218 60233475 42229181 202223882 169127822#0 169127822#1 -24436948 -1030803965#1 -1030803965#0 12098782#0 12098782#1 12098782#2 12098782#3 12098782#4 12098782#5 12098782#6 12098782#7 -538359000 431767318#0 431767318#1 431767318#2 387155266 387117390 12099349 538358998#0 538358998#1 538358998#2 560583354 560583353#0 560583353#1 560583353#2 13622251#0 13622251#1 13622251#2 13622251#3 13622251#4 13622251#5 13622251#6 13622250 204334937 -280092588#2 -280092588#1 -280092588#0 -412792775 -387117387 -387117386#3 -387117386#2 -387117386#1 -387117386#0 -13622269 -280092576 -50257937#8 -50257937#7 -50257937#6 -50257937#5 -50257937#4 -50257937#3 -50257937#2 -50257937#1 -50257937#0 -399708758 -232962012 -488937080 -232962013#1" >
        <stop busStop="3566577205" duration="20" until="41.0"/> <!-- Esslingen (N) ZOB -->
        <stop busStop="-274718800" duration="20" until="728.0"/> <!-- Katzenkopf -->
    </route>
    <route id="pt_bus_X20:0" color="0,191,243" edges="232962013#1 488937080 232962012 399708758 50257937#0 50257937#1 50257937#2 50257937#3 50257937#4 50257937#5 50257937#6 50257937#7 50257937#8 280092576 13622269 387117386#0 387117386#1 387117386#2 387117386#3 387117387 1028791818 280092588#0 280092588#1 280092588#2 13622267 280092625#0 280092625#1 280092625#2 387212710#1 387212710#2 280128594#1 280128594#2 280128594#3 560583318 280092618 280092637 560583323 280092630 280092634#0 280092634#1 390062309 280092640 280128590 403701944 280092647 -280092621#1 -280092621#0 42229180#0 42229180#1 202499355#0 202499355#1 390062305 387155264 387155265 202499353#0 202499353#1 555758425#0 555758425#1 202499351#0 202499351#1 202499351#2 202499351#3 202555478#0 202555478#1 202555478#2 202555475#0 202555475#1 202555475#2 202555475#3 202555475#4 202555475#5 202555475#6 202555475#7 202555475#8 202555475#9 202555475#10 202555475#11 186037699#0 186037699#1 594324466 436153520 385405402 787900923 436153519 186037710 -281921554 -281956711#1 -281956711#0 -281956710#1 -281956710#0 385405398 385405409#0 385405409#1 785623013#1 281956714 787951056#1 385405407#0 385405407#1 385405407#2 787951055 785623014 787951054 8812305#1 8812305#2 386831075#0 386831075#1 694012903#0 694012903#1 694012901 4807779#0 4807779#1 694012899#0 694012899#1 694012899#2 38361911#0 38361911#1 38361911#2 4807781#0 4807781#1 4807781#2 1245658820 1245658819 4807784#1 4807784#2 661603871 661603873#0 661603873#1 661603873#2 387155259 10419532#0 10419532#1 156260261 1242564543#0 1242564543#1 138203611 169218528#0 169218528#1 169218528#2 169218528#3 163737798#0 163737798#1 182055123#0 182055123#1 1157387449 1157387455 182055500 1157387457#0 1157387457#1 31787956 911970184 911970185 939228251 178668745 -332292229 268558821#0 268558821#1" >
        <stop busStop="274718800" duration="20" until="34.0"/> <!-- Katzenkopf -->
        <stop busStop="1967351665" duration="20" until="399.0"/> <!-- Flandernstraße -->
        <stop busStop="3566577205" duration="20" until="788.0"/> <!-- Esslingen (N) ZOB -->
    </route>
    <route id="pt_bus_119:1" color="0,101,183" edges="569733700#3 569733700#4 207012106#0 207012106#1 231875718 755497923 755497927#0 755497927#1 755497929#0 755497929#1 755497929#2 231875742#0 231875742#1 231875742#2 755497921 1165983434#0 1165983434#1 255241187 926867310 -697552586 -255241186 -156261680 -156261679#1 -156261679#0 21310559 -30998714 -30998715 -926867314 -139468854 -439857030 -345736598 -926867318 -345736606 -265450242 -23182939 -926867322 -265461454 345736599 1157387459#0 1157387459#1 1157387459#2 11335855#0 11335855#1 265461445#0 265461445#1 169097422 265461443 345736597 1249982189 345736592#0 345736592#1 423481788 220150011#0 220150011#1 423481777-AddedOnRampEdge 423481777 265461451 23205595#0 23205595#1 350147738 10492734#1 10492734#2 17096026 156260261 1242564543#0 1242564543#1 138203611 169218510#0 169218510#1 1257943745#0 1257943745#1 -1250860603 -109592895 350217704#1 350217704#2 350217704#3 350217704#4 387401257#0 387401257#1 31787956 911970184 911970185 939228251 178668745 -332292229 -384972985 268558823#0 268558823#1" >
        <stop busStop="3953647893" duration="20" until="39.0"/> <!-- Nellingen Nussweg -->
        <stop busStop="89026017" duration="20" until="110.0"/> <!-- Nellinger Linde -->
        <stop busStop="3933810885" duration="20" until="169.0"/> <!-- Mutzenreisstraße -->
        <stop busStop="2426004802" duration="20" until="274.0"/> <!-- Zollberg -->
        <stop busStop="-89023451" duration="20" until="340.0"/> <!-- Oberer Eisbergweg -->
        <stop busStop="-6550964524" duration="20" until="442.0"/> <!-- Im Holder -->
        <stop busStop="3523843331" duration="20" until="518.0"/> <!-- Weilstraße -->
        <stop busStop="11547007243" duration="20" until="635.0"/> <!-- Maille -->
        <stop busStop="1254192526" duration="20" until="711.0"/> <!-- Pliensauturm -->
        <stop busStop="3566577206" duration="20" until="799.0"/> <!-- Esslingen (N) ZOB -->
    </route>
    <route id="pt_bus_140:1" color="254,160,186" edges="-39761675#3 -39761675#2 -39761675#1 -39761675#0 -38361905#1 -38361905#0 -38279874 -4590682#2 -4590682#1 -4590682#0 -23999290 -23999291#2 -23999291#1 -23999291#0 -1169441387 -1169441388 -1169441386 -331752492#2 -331752492#1 -331752492#0 -4811457 183419043#0 183419043#1 183419043#2 183419042#0 183419042#1 183419042#2 183419042#3 183419042#4 183419042#5 183419042#6 183419042#7 183419042#8 183419042#9 183419042#10 183419042#11 273990570 273990571#0 273990571#1 273990571#2 273990571#3 273990571#4 273990571#5 273990571#6 4811453#0 4811453#1 4811453#2 4811453#3 4811453#4 4811453#5 4811453#6 4811453#7 -275526211 -4807837#2 -4807837#1 -4807837#0 -54883018#3 -54883018#2 -54883018#1 -54883018#0 -693946719#1 -693946719#0 -178668743 -202630135 -387401256#1 -387401256#0 -290577631 -169218302#1 -169218302#0 -54883015 -290577629#2 -290577629#1 -290577629#0 -1250860603 -109592895 350217704#1 350217704#2 350217704#3 350217704#4 387401257#0 387401257#1 31787956 911970184 911970185 939228251 178668745 -332292229 268558821#0 268558821#1" >
        <stop busStop="-3872841449" duration="20" until="36.0"/> <!-- Zell Bahnhof -->
        <stop busStop="-29027281" duration="20" until="125.0"/> <!-- Alte Heusteige -->
        <stop busStop="434308192" duration="20" until="317.0"/> <!-- Lammgarten -->
        <stop busStop="-2626499005" duration="20" until="498.0"/> <!-- Charlottenplatz -->
        <stop busStop="1254192526" duration="20" until="753.0"/> <!-- Pliensauturm -->
        <stop busStop="3566577205" duration="20" until="826.0"/> <!-- Esslingen (N) ZOB -->
    </route>
    <route id="pt_bus_119:0" color="0,101,183" edges="268558823#1 390062307 342553326#0 342553326#1 -146911733 -468914851 4811517 146910022#1 345748663 26738365 265461450 423481774#0 423481774#1 220150010 10492736 10492736-AddedOffRampEdge 345736580 180667064#0 180667064#1 345736584 265461444#0 265461444#1 692610294 1157387458 345736587#0 345736587#1 30998717#0 30998717#1 11335846#0 11335846#1 926867325 345736604 926867324 265461454 926867322 23182939 265450242 345736606 686955221 345736600 439857030 345736605 1079724463 30998715 30998714 211686719#0 211686719#1 11336059 156261679#0 156261679#1 156261680 255241186 697552586 -926867310 -255241187 -1165983434#1 -1165983434#0 -755497921 -231875742#2 -231875742#1 -231875742#0 755497928 755497919 10492738 380433439#0 380433439#1 380433439#2 231875717 -231875718 -207012106#1 -207012106#0 -569733700#4 -569733700#3 -569733700#2 -569733700#1 -569733700#0 -127121917#6 -127121917#5 -127121917#4 -127121917#3 -127121917#2 -127121917#1 -127121917#0" >
        <stop busStop="3566577206" duration="20" until="38.0"/> <!-- Esslingen (N) ZOB -->
        <stop busStop="3933810892" duration="20" until="213.0"/> <!-- Weilstraße -->
        <stop busStop="2711169196" duration="20" until="291.0"/> <!-- Im Holder -->
        <stop busStop="89023451" duration="20" until="422.0"/> <!-- Oberer Eisbergweg -->
        <stop busStop="3933810893" duration="20" until="499.0"/> <!-- Zollberg -->
        <stop busStop="-3933810885" duration="20" until="576.0"/> <!-- Mutzenreisstraße -->
        <stop busStop="3837694347" duration="20" until="640.0"/> <!-- Nellinger Linde -->
        <stop busStop="-6184408673" duration="20" until="741.0"/> <!-- Nellingen Nussweg -->
        <stop busStop="-282218559" duration="20" until="843.0"/> <!-- Nellingen Ostfildern -->
    </route>
    <route id="pt_bus_140:0" color="254,160,186" edges="268558821#1 342553326#0 342553326#1 -146911733 -468914851 -939228251 -911970185 -911970184 -31787956 -1157387457#1 -1157387457#0 -182055500 182055214#0 182055214#1 4807763 1157387448#0 1157387448#1 1157387451#0 1157387451#1 1157387451#2 169218302#0 169218302#1 -169218302#1 -169218302#0 -54883015 -290577629#2 -290577629#1 -290577629#0 -1250860603 -109592895 350217704#1 350217704#2 -350217704#2 -350217704#1 -350217704#0 1250860603 290577629#0 290577629#1 290577629#2 54883015 169218302#0 169218302#1 290577631 387401256#0 387401256#1 178668744 178668743 693946719#0 693946719#1 54883018#0 54883018#1 54883018#2 54883018#3 4807837#0 4807837#1 4807837#2 275526211 -4811453#7 -4811453#6 -4811453#5 -4811453#4 -4811453#3 -4811453#2 -4811453#1 -4811453#0 -273990571#6 -273990571#5 -273990571#4 -273990571#3 -273990571#2 -273990571#1 -273990571#0 -273990570 -183419042#11 -183419042#10 -183419042#9 -183419042#8 -183419042#7 -183419042#6 -183419042#5 -183419042#4 -183419042#3 -183419042#2 -183419042#1 -183419042#0 26249185#0 26249185#1 26249185#2 26249185#3 4811457 331752492#0 331752492#1 331752492#2 331752492#3 331752494 1169441387 23999291#0 23999291#1 23999291#2 23999290 4590682#0 4590682#1 4590682#2 38279874 38361905#0 38361905#1 39761675#0 39761675#1 39761675#2 39761675#3" >
        <stop busStop="3566577205" duration="20" until="38.0"/> <!-- Esslingen (N) ZOB -->
        <stop busStop="-3872841443" duration="20" until="231.0"/> <!-- Pliensauturm -->
        <stop busStop="2626499005" duration="20" until="401.0"/> <!-- Charlottenplatz -->
        <stop busStop="-434308192" duration="20" until="621.0"/> <!-- Lammgarten -->
        <stop busStop="29027281" duration="20" until="773.0"/> <!-- Alte Heusteige -->
        <stop busStop="3872841449" duration="20" until="862.0"/> <!-- Zell Bahnhof -->
    </route>