<?xml version="1.0" encoding="UTF-8"?>

<!-- generated on 2023-11-28 15:32:46.513126 by gtfs2pt.py v1_19_0+0000-baa66a0f364
<configuration>
    <gtfs value="gtfs_realtime.zip"/>
    <date value="20231009"/>
    <network value="osm.net.xml.gz"/>
</configuration>
-->

<routes xmlns:xsi="http://www.w3.org/2001/XMLSchema-instance" xsi:noNamespaceSchemaLocation="http://sumo.dlr.de/xsd/routes_file.xsd">
    <vType id="bus" vClass="bus"/>
    <route id="de:vvs:30062_::1-T0-10" edges="-295849087#0">
        <stop busStop="de:vvs:30062_::1-T0-10.1" duration="10" until="0"/> <!-- Otto-Hirsch-Brücken -->
    </route>
    <route id="de:vvs:30062_::1-T0-141" edges="-295849087#0">
        <stop busStop="de:vvs:30062_::1-T0-10.1" duration="10" until="0"/> <!-- Otto-Hirsch-Brücken -->
    </route>
    <route id="de:vvs:30065_::1-UJ-10" edges="-295849087#0">
        <stop busStop="de:vvs:30062_::1-T0-10.1" duration="10" until="0"/> <!-- Otto-Hirsch-Brücken -->
    </route>
    <route id="de:vvs:30065_::1-UJ-180" edges="-295849087#0">
        <stop busStop="de:vvs:30062_::1-T0-10.1" duration="10" until="0"/> <!-- Otto-Hirsch-Brücken -->
    </route>
    <route id="de:vvs:30065_::1-UJ-21" edges="-295849087#0">
        <stop busStop="de:vvs:30062_::1-T0-10.1" duration="10" until="0"/> <!-- Otto-Hirsch-Brücken -->
    </route>
    <route id="de:vvs:31101_::1-T0-1" edges="-23320397#0 -384338154#1 -384338154#0 -384338153#1 -384338153#0 135078198 1162834479#1 758088379#0 -758088380 -696225646#3 -696225646#2 -696225646#1 -387296014#1 696225651#1 -22889927#4 -22889927#2 -22889927#0 -758088377#2 -758088377#1 -758088376#0 -38361908#1 -183049933#0 -1164287131#2 38361907 183419043#0 183419043#1 183419043#2 183419042#0 183419042#1 183419042#2 183419042#3 183419042#4 183419042#6 183419042#8 183419042#9 183419042#10 183419042#11 273990570 273990571#0 273990571#1 273990571#2 273990571#3 273990571#4 273990571#5 273990571#6 4811453#1 4811453#2 4811453#3 4811453#4 4811453#5 4811453#6 4811453#7 -275526211 -4807837#2 -4807837#1 -4807837#0 -54883018#3 -54883018#2 -54883018#1 -178668743 -202630135 -387401256#1 -290577631 163737798 182055123#0 182055123#1 1157387449#0 1157387449#1 1157387455 1157387457 -350217704#4 -350217704#3 -350217704#2 -350217704#0 350217704#0 350217704#2 350217704#3 350217704#4 911970184 911970185 939228251 178668745 146911733 316354392 675777502 105914659#1 316354387#0 316354387#1 -135078201 4807753#0 4807753#1 4807753#2 37181838#0 37181838#1 37181838#2 37181838#3 37181838#4 37181839#0 37181839#1 37181839#2 39008607 378237367 135078202#0 378237361 692537992 692537991#0 378237359#0 378237359#1 378237359#2 378237359#5 378237359#6 387401261 896339465 383983724#0 896339464 23163758 135078205 388285827#0 448974996#0 448974996#1 30010699#0 30010699#1 448974997#1 448974997#2 30010698#0 30010698#1 290461455#1 290461455#3 -273169656#1 -896339462 -591252082 -591252083#0 -387401262#7 -387401262#4 -387401262#3 -387401262#2 -387401262#0 -974776881#3 -974776881#2 -974776881#1 -974776881#0 -570009371#0 -570009376#1 -570009376#0">
        <stop busStop="de:vvs:31101_::1-T0-1.0" duration="10" until="0"/> <!-- Oberessl. Lerchenäcker -->
        <stop busStop="de:vvs:31101_::1-T0-1.1" duration="10" until="120"/> <!-- Oberesslingen Steinhalde -->
        <stop busStop="de:vvs:31101_::1-T0-1.2" duration="10" until="240"/> <!-- Oberesslingen Herderstr. -->
        <stop busStop="de:vvs:31101_::1-T0-1.3" duration="10" until="300"/> <!-- Oberessl. Indexstr/Bahnhof -->
        <stop busStop="de:vvs:31101_::1-T0-1.4" duration="10" until="360"/> <!-- Oberesslingen Stauffenbergstraße -->
        <stop busStop="de:vvs:31101_::1-T0-1.5" duration="10" until="480"/> <!-- Esslingen (N) Bismarckstr. -->
        <stop busStop="de:vvs:31101_::1-T0-1.6" duration="10" until="600"/> <!-- Esslingen (N) Charlottenplatz -->
        <stop busStop="de:vvs:31101_::1-T0-1.7" duration="10" until="660"/> <!-- Esslingen (N) Merkel'sches Bad -->
        <stop busStop="de:vvs:31101_::1-T0-1.8" duration="10" until="720"/> <!-- Esslingen (N) Pliensauturm -->
        <stop busStop="de:vvs:31101_::1-T0-1.9" duration="10" until="960"/> <!-- Esslingen (N) ZOB -->
        <stop busStop="de:vvs:31101_::1-T0-1.10" duration="10" until="1080"/> <!-- Esslingen (N) Schelztor -->
        <stop busStop="de:vvs:31101_::1-T0-1.11" duration="10" until="1140"/> <!-- Essl.(N) Schlachthausbrücke -->
        <stop busStop="de:vvs:31101_::1-T0-1.12" duration="10" until="1200"/> <!-- Esslingen (N) Volkshochschule -->
        <stop busStop="de:vvs:31101_::1-T0-1.13" duration="10" until="1320"/> <!-- Mettingen Burgunderstr. -->
        <stop busStop="de:vvs:31101_::1-T0-1.14" duration="10" until="1380"/> <!-- Mettingen Bf (Trollingerweg) -->
        <stop busStop="de:vvs:31101_::1-T0-1.15" duration="10" until="1440"/> <!-- Mettingen Weinstraße -->
        <stop busStop="de:vvs:31101_::1-T0-1.16" duration="10" until="1560"/> <!-- Stadtgrenze -->
    </route>
    <route id="de:vvs:31101_::1-T0-100" edges="570009376#0 570009376#1 570009371#0 974776882 974776881#1 974776881#2 974776881#3 387401262#0 387401262#1 387401262#3 387401262#4 387401262#5 591252083#0 591252082 896339462 273169656#0 -290461455#3 -290461455#2 -383983728 -30010698#0 -448974997#2 -448974997#1 -30010699#1 -30010699#0 -448974996#1 -448974996#0 -388285827#0 -135078205 -23163758 -896339464 146908199#1 146908199#2 -387401261 -378237359#6 -378237359#5 -378237359#2 -378237359#1 -378237359#0 -692537991#0 -1175994829 -378237361 -135078202#1 378237373#1 378237374#0 -378237372#1 4807755#0 191708800 37181838#4 37181839#0 37181839#1 37181839#2 -378237372#1 4807755#0 4807755#1 4807755#2 611784190 37181836#0 37181836#1 105914662#0 105914662#1 -135078201 4807753#0 4807753#1 4807753#2 -115626706 -4807751#2 -4807751#1 -4807751#0 -109592901 25596853 156260258 386500268#1 4807839 384972984 384972985 332292229 -468914851 -939228251 -911970185 -911970184 -350217704#4 -350217704#3 -350217704#2 -350217704#0 109592895 17097227 290577629#0 290577631 387401256#1 178668744 178668743 54883018#1 54883018#2 54883018#3 4807837#0 4807837#1 4807837#2 275526211 -4811453#7 -4811453#6 -4811453#5 -4811453#4 -4811453#3 -4811453#2 -4811453#1 -273990571#6 -273990571#5 -273990571#4 -273990571#3 -273990571#2 -273990571#1 -273990571#0 -273990570 -183419042#11 -183419042#10 -183419042#9 -183419042#8 -183419042#7 -183419042#4 -183419042#3 -183419042#2 -183419042#1 -183419042#0 26249185#0 26249185#1 26249185#3 183049934 1164287131#1 183049933#0 38361908#1 758088376#0 758088377#1 758088377#2 22889927#0 22889927#2 22889927#4 387296014#0 387296014#1 696225646#1 696225646#2 696225646#3 130569446 -758088379#0 -1162834479#1 -1162834479#0 384338153#0 384338153#1 384338154#0 384338154#1 384338154#2">
        <stop busStop="de:vvs:31101_::1-T0-100.1" duration="10" until="0"/> <!-- Stadtgrenze -->
        <stop busStop="de:vvs:31101_::1-T0-100.2" duration="10" until="60"/> <!-- Mettingen Weinstraße -->
        <stop busStop="de:vvs:31101_::1-T0-100.3" duration="10" until="180"/> <!-- Mettingen Bf (Trollingerweg) -->
        <stop busStop="de:vvs:31101_::1-T0-100.4" duration="10" until="240"/> <!-- Mettingen Burgunderstr. -->
        <stop busStop="de:vvs:31101_::1-T0-100.5" duration="10" until="300"/> <!-- Esslingen (N) Volkshochschule -->
        <stop busStop="de:vvs:31101_::1-T0-1.11" duration="10" until="420"/> <!-- Essl.(N) Schlachthausbrücke -->
        <stop busStop="de:vvs:31101_::1-T0-1.10" duration="10" until="480"/> <!-- Esslingen (N) Schelztor -->
        <stop busStop="de:vvs:31101_::1-T0-100.8" duration="10" until="780"/> <!-- Esslingen (N) ZOB -->
        <stop busStop="de:vvs:31101_::1-T0-100.9" duration="10" until="840"/> <!-- Esslingen (N) Pliensauturm -->
        <stop busStop="de:vvs:31101_::1-T0-100.10" duration="10" until="960"/> <!-- Esslingen (N) Merkel'sches Bad -->
        <stop busStop="de:vvs:31101_::1-T0-100.11" duration="10" until="1020"/> <!-- Esslingen (N) Charlottenplatz -->
        <stop busStop="de:vvs:31101_::1-T0-100.12" duration="10" until="1140"/> <!-- Esslingen (N) Bismarckstr. -->
        <stop busStop="de:vvs:31101_::1-T0-100.13" duration="10" until="1200"/> <!-- Oberesslingen Stauffenbergstraße -->
        <stop busStop="de:vvs:31101_::1-T0-100.14" duration="10" until="1260"/> <!-- Oberessl. Indexstr/Bahnhof -->
        <stop busStop="de:vvs:31101_::1-T0-100.15" duration="10" until="1380"/> <!-- Oberesslingen Herderstr. -->
        <stop busStop="de:vvs:31101_::1-T0-100.16" duration="10" until="1440"/> <!-- Oberesslingen Steinhalde -->
        <stop busStop="de:vvs:31101_::1-T0-100.17" duration="10" until="1620"/> <!-- Oberessl. Lerchenäcker -->
    </route>
    <route id="de:vvs:31101_::1-T0-124" edges="-23320397#0 -384338154#1 -384338154#0 -384338153#1 -384338153#0 135078198 1162834479#1 758088379#0 -758088380 -696225646#3 -696225646#2 -696225646#1 -387296014#1 696225651#1 -22889927#4 -22889927#2 -22889927#0 -758088377#2 -758088377#1 -758088376#0 -38361908#1 -183049933#0 -1164287131#2 38361907 183419043#0 183419043#1 183419043#2 183419042#0 183419042#1 183419042#2 183419042#3 183419042#4 183419042#6 183419042#8 183419042#9 183419042#10 183419042#11 273990570 273990571#0 273990571#1 273990571#2 273990571#3 273990571#4 273990571#5 273990571#6 4811453#1 4811453#2 4811453#3 4811453#4 4811453#5 4811453#6 4811453#7 -275526211 -4807837#2 -4807837#1 -4807837#0 -54883018#3 -54883018#2 -54883018#1 -178668743 -202630135 -387401256#1 -290577631 163737798 182055123#0 182055123#1 1157387449#0 1157387449#1 1157387455 1157387457 -350217704#4 -350217704#3 -350217704#2 -350217704#0 350217704#0 350217704#2 350217704#3 350217704#4 911970184 911970185 939228251 178668745 146911733">
        <stop busStop="de:vvs:31101_::1-T0-1.0" duration="10" until="0"/> <!-- Oberessl. Lerchenäcker -->
        <stop busStop="de:vvs:31101_::1-T0-1.1" duration="10" until="120"/> <!-- Oberesslingen Steinhalde -->
        <stop busStop="de:vvs:31101_::1-T0-1.2" duration="10" until="240"/> <!-- Oberesslingen Herderstr. -->
        <stop busStop="de:vvs:31101_::1-T0-1.3" duration="10" until="300"/> <!-- Oberessl. Indexstr/Bahnhof -->
        <stop busStop="de:vvs:31101_::1-T0-1.4" duration="10" until="360"/> <!-- Oberesslingen Stauffenbergstraße -->
        <stop busStop="de:vvs:31101_::1-T0-1.5" duration="10" until="480"/> <!-- Esslingen (N) Bismarckstr. -->
        <stop busStop="de:vvs:31101_::1-T0-1.6" duration="10" until="600"/> <!-- Esslingen (N) Charlottenplatz -->
        <stop busStop="de:vvs:31101_::1-T0-1.7" duration="10" until="660"/> <!-- Esslingen (N) Merkel'sches Bad -->
        <stop busStop="de:vvs:31101_::1-T0-1.8" duration="10" until="720"/> <!-- Esslingen (N) Pliensauturm -->
        <stop busStop="de:vvs:31101_::1-T0-1.9" duration="10" until="900"/> <!-- Esslingen (N) ZOB -->
    </route>
    <route id="de:vvs:31101_::1-T0-125" edges="-23320397#0 -384338154#1 -384338154#0 -384338153#1 -384338153#0 135078198 1162834479#1 758088379#0 -758088380 -696225646#3 -696225646#2 -696225646#1 -387296014#1 696225651#1 -22889927#4 -22889927#2 -22889927#0 -758088377#2 -758088377#1 -758088376#0 -38361908#1 -183049933#0 -1164287131#2 38361907 183419043#0 183419043#1 183419043#2 183419042#0 183419042#1 183419042#2 183419042#3 183419042#4 183419042#6 183419042#8 183419042#9 183419042#10 183419042#11 273990570 273990571#0 273990571#1 273990571#2 273990571#3 273990571#4 273990571#5 273990571#6 4811453#1 4811453#2 4811453#3 4811453#4 4811453#5 4811453#6 4811453#7 -275526211 -4807837#2 -4807837#1 -4807837#0 -54883018#3 -54883018#2 -54883018#1 -178668743 -202630135 -387401256#1 -290577631 163737798 182055123#0 182055123#1 1157387449#0 1157387449#1 1157387455 1157387457 -350217704#4 -350217704#3 -350217704#2 -350217704#0 350217704#0 350217704#2 350217704#3 350217704#4 911970184 911970185 939228251 178668745 146911733 316354392 675777502 105914659#1 316354387#0 316354387#1 -135078201 4807753#0 4807753#1 4807753#2 37181838#0 37181838#1 37181838#2 37181838#3 37181838#4 37181839#0 37181839#1 37181839#2 39008607 378237367 135078202#0 378237361 692537992 692537991#0 378237359#0 378237359#1 378237359#2 378237359#5 378237359#6 387401261 896339465 383983724#0 896339463#0 896339463#1 383945635#1 383945635#2 823062063#1 823062063#2 823062063#3 823062063#4 823062063#6">
        <stop busStop="de:vvs:31101_::1-T0-1.0" duration="10" until="0"/> <!-- Oberessl. Lerchenäcker -->
        <stop busStop="de:vvs:31101_::1-T0-1.1" duration="10" until="120"/> <!-- Oberesslingen Steinhalde -->
        <stop busStop="de:vvs:31101_::1-T0-1.2" duration="10" until="240"/> <!-- Oberesslingen Herderstr. -->
        <stop busStop="de:vvs:31101_::1-T0-1.3" duration="10" until="300"/> <!-- Oberessl. Indexstr/Bahnhof -->
        <stop busStop="de:vvs:31101_::1-T0-1.4" duration="10" until="360"/> <!-- Oberesslingen Stauffenbergstraße -->
        <stop busStop="de:vvs:31101_::1-T0-1.5" duration="10" until="480"/> <!-- Esslingen (N) Bismarckstr. -->
        <stop busStop="de:vvs:31101_::1-T0-1.6" duration="10" until="600"/> <!-- Esslingen (N) Charlottenplatz -->
        <stop busStop="de:vvs:31101_::1-T0-1.7" duration="10" until="660"/> <!-- Esslingen (N) Merkel'sches Bad -->
        <stop busStop="de:vvs:31101_::1-T0-1.8" duration="10" until="720"/> <!-- Esslingen (N) Pliensauturm -->
        <stop busStop="de:vvs:31101_::1-T0-1.9" duration="10" until="960"/> <!-- Esslingen (N) ZOB -->
        <stop busStop="de:vvs:31101_::1-T0-1.10" duration="10" until="1080"/> <!-- Esslingen (N) Schelztor -->
        <stop busStop="de:vvs:31101_::1-T0-1.11" duration="10" until="1140"/> <!-- Essl.(N) Schlachthausbrücke -->
        <stop busStop="de:vvs:31101_::1-T0-1.12" duration="10" until="1200"/> <!-- Esslingen (N) Volkshochschule -->
        <stop busStop="de:vvs:31101_::1-T0-125.13" duration="10" until="1260"/> <!-- Mettingen Cannstatter Str. -->
        <stop busStop="de:vvs:31101_::1-T0-125.14" duration="10" until="1320"/> <!-- Mettingen Alte Schifffahrt -->
        <stop busStop="de:vvs:31101_::1-T0-125.15" duration="10" until="1380"/> <!-- Mettingen Bf -->
    </route>
    <route id="de:vvs:31101_::1-T0-133" edges="4811453#2 4811453#3 4811453#4 4811453#5 4811453#6 4811453#7 -275526211 -4807837#2 -4807837#1 -4807837#0 -54883018#3 -54883018#2 -54883018#1 -178668743 -202630135 -387401256#1 -290577631 163737798 182055123#0 182055123#1 1157387449#0 1157387449#1 1157387455 1157387457 -350217704#4 -350217704#3 -350217704#2 -350217704#0 350217704#0 350217704#2 350217704#3 350217704#4 911970184 911970185 939228251 178668745 146911733 316354392 675777502 105914659#1 316354387#0 316354387#1 -135078201 4807753#0 4807753#1 4807753#2 37181838#0 37181838#1 37181838#2 37181838#3 37181838#4 37181839#0 37181839#1 37181839#2 39008607 378237367 135078202#0 378237361 692537992 692537991#0 378237359#0 378237359#1 378237359#2 378237359#5 378237359#6 387401261 896339465 383983724#0 896339463#0 896339463#1 383945635#1 383945635#2 823062063#1 823062063#2 823062063#3 823062063#4 823062063#6">
        <stop busStop="de:vvs:31101_::1-T0-1.5" duration="10" until="0"/> <!-- Esslingen (N) Bismarckstr. -->
        <stop busStop="de:vvs:31101_::1-T0-1.6" duration="10" until="120"/> <!-- Esslingen (N) Charlottenplatz -->
        <stop busStop="de:vvs:31101_::1-T0-1.7" duration="10" until="180"/> <!-- Esslingen (N) Merkel'sches Bad -->
        <stop busStop="de:vvs:31101_::1-T0-1.8" duration="10" until="240"/> <!-- Esslingen (N) Pliensauturm -->
        <stop busStop="de:vvs:31101_::1-T0-1.9" duration="10" until="480"/> <!-- Esslingen (N) ZOB -->
        <stop busStop="de:vvs:31101_::1-T0-1.10" duration="10" until="600"/> <!-- Esslingen (N) Schelztor -->
        <stop busStop="de:vvs:31101_::1-T0-1.11" duration="10" until="660"/> <!-- Essl.(N) Schlachthausbrücke -->
        <stop busStop="de:vvs:31101_::1-T0-1.12" duration="10" until="720"/> <!-- Esslingen (N) Volkshochschule -->
        <stop busStop="de:vvs:31101_::1-T0-125.13" duration="10" until="780"/> <!-- Mettingen Cannstatter Str. -->
        <stop busStop="de:vvs:31101_::1-T0-125.14" duration="10" until="840"/> <!-- Mettingen Alte Schifffahrt -->
        <stop busStop="de:vvs:31101_::1-T0-125.15" duration="10" until="900"/> <!-- Mettingen Bf -->
    </route>
    <route id="de:vvs:31101_::1-T0-138" edges="4811453#2 4811453#3 4811453#4 4811453#5 4811453#6 4811453#7 -275526211 -4807837#2 -4807837#1 -4807837#0 -54883018#3 -54883018#2 -54883018#1 -178668743 -202630135 -387401256#1 -290577631 163737798 182055123#0 182055123#1 1157387449#0 1157387449#1 1157387455 1157387457 -350217704#4 -350217704#3 -350217704#2 -350217704#0 350217704#0 350217704#2 350217704#3 350217704#4 911970184 911970185 939228251 178668745 146911733 316354392 675777502 105914659#1 316354387#0 316354387#1 -135078201 4807753#0 4807753#1 4807753#2 37181838#0 37181838#1 37181838#2 37181838#3 37181838#4 37181839#0 37181839#1 37181839#2 39008607 378237367 135078202#0 378237361 692537992 692537991#0 378237359#0 378237359#1 378237359#2 378237359#5 378237359#6 387401261 896339465 383983724#0 896339464 23163758 135078205 388285827#0 448974996#0 448974996#1 30010699#0 30010699#1 448974997#1 448974997#2 30010698#0 30010698#1 290461455#1 290461455#3 -273169656#1 -896339462 -591252082 -591252083#0 -387401262#7 -387401262#4 -387401262#3 -387401262#2 -387401262#0 -974776881#3 -974776881#2 -974776881#1 -974776881#0 -570009371#0 -570009376#1 -570009376#0">
        <stop busStop="de:vvs:31101_::1-T0-1.5" duration="10" until="0"/> <!-- Esslingen (N) Bismarckstr. -->
        <stop busStop="de:vvs:31101_::1-T0-1.6" duration="10" until="120"/> <!-- Esslingen (N) Charlottenplatz -->
        <stop busStop="de:vvs:31101_::1-T0-1.7" duration="10" until="180"/> <!-- Esslingen (N) Merkel'sches Bad -->
        <stop busStop="de:vvs:31101_::1-T0-1.8" duration="10" until="240"/> <!-- Esslingen (N) Pliensauturm -->
        <stop busStop="de:vvs:31101_::1-T0-1.9" duration="10" until="480"/> <!-- Esslingen (N) ZOB -->
        <stop busStop="de:vvs:31101_::1-T0-1.10" duration="10" until="600"/> <!-- Esslingen (N) Schelztor -->
        <stop busStop="de:vvs:31101_::1-T0-1.11" duration="10" until="660"/> <!-- Essl.(N) Schlachthausbrücke -->
        <stop busStop="de:vvs:31101_::1-T0-1.12" duration="10" until="720"/> <!-- Esslingen (N) Volkshochschule -->
        <stop busStop="de:vvs:31101_::1-T0-1.13" duration="10" until="840"/> <!-- Mettingen Burgunderstr. -->
        <stop busStop="de:vvs:31101_::1-T0-1.14" duration="10" until="900"/> <!-- Mettingen Bf (Trollingerweg) -->
        <stop busStop="de:vvs:31101_::1-T0-1.15" duration="10" until="960"/> <!-- Mettingen Weinstraße -->
        <stop busStop="de:vvs:31101_::1-T0-1.16" duration="10" until="1080"/> <!-- Stadtgrenze -->
    </route>
    <route id="de:vvs:31102_::3-T0-1" edges="-23439929#0 -23439923 37177743#0 37177743#1 37177743#2 391001058 387401249#1 387401249#2 283020993#1 283020993#3 283020993#4 -25973409#3 -25973409#2 -25973409#1 -4811464 4807776#0 4807776#1 758088375#0 38361908#1 758088376#0 23725458#1 23725458#3 23725458#4 23725458#5 281956705#0 281956705#4 281956700#0 281956700#1 8026683#0 8026683#1 8026683#4 8026683#5 8026683#7 8026683#8 8026683#9 -23439978#6 -23439978#5 -23439978#3 -23439978#2 -23439978#1 -23439978#0 -169224407#3 -169224407#2 -169224407#1 -169224407#0 -4807759#5 -4807759#2 4807765#0 4807765#1 4807765#4 29139497#0 29139497#2 23320738#0 23320738#1 23320738#2 29138345 202572130 78043851 94166210#0 94166210#1 386832701#0 386832701#1 442274134 386832702 -378237356 -23316466 442274132 442274138 386832703#0 386832703#1 135078201 -283413806 -316354387#0 156260258 386500268#1 4807839 384972984 384972985 332292229 -468914851 -939228251 -911970185 -911970184 -350217704#4 -350217704#3 -350217704#2 -350217704#0 109592895 17097227 290577629#0 1157387454#0 1157387454#1 138203609#0 138203610 387155262 156260255#0 156260255#1 156260255#2 156260255#3 138203607 4807840 26738365#0 26738365#1 265461450 423481774#0 423481774#1 220150010 10492736 345736590 345736590-AddedOffRampEdge 345736580 180667064#0 345736584 180667070 -692610297 -900882212 -169097419#1 -900882211#1 -900882210 -111177314#4 -111177314#2 -111177314#1 -111177314#0 -911891312 -687182914#2 -687182914#1 -687182914#0 692610318#1 911891324 911891320 23093000#1 911891319#1 692610317#1 692610317#2 383945640 169096205 -387498727#1 -387498727#0 -387498728#3 -387498728#2 -387498728#1 -387498728#0 -17096022 9054644 978314929 37721065#0 37721065#1 37721066#0 37721066#1 261543559 261543561#0 261543562#1 383983734 -261543560#1 -261543560#0 -169095987 -167641315#2 -167641315#0 -118976653 -1088247375 -448974992#2 -448974992#1 -448974992#0 -23108338 -23119545 -4066943#6 -4066943#5 -4066943#3 -4066943#2 -4066943#0 -432904515 -432904514 899604572#0 899604572#2 1088871993#0 1088871993#1 448974993#0 448974993#1 448974993#2 169095987 261543560#0 261543560#1 176337397 261543547#0 176337392 261543546 176337395 -176337394 -4067008 -24447633 -261543534 300813715#1 383945632 261543531#0 261543531#1 243261570-AddedOnRampEdge 243261570 243261558 24447619 243261573 10424180 261563343 613717242 -545334725 -154234474 -422603723 10424182 422603725#0 158515349#1 158513383#0 158513383#1 87506019 314882256 -548460251 -200297092 -200297090 -548463240 -314882254#2 5783243#0 154230476 570009376#0 570009376#1 570009371#0 974776882 974776881#1 974776881#2 974776881#3 387401262#0 387401262#1 387401262#3 387401262#4 387401262#5 591252083#0 591252082 896339462 273169656#0 4067157 273169649#0 273169649#1 146908203#0 146908203#1 146908203#2 146908203#3 661600434#0 661600434#1 383945635#1 383945635#2 823062063#1 823062063#2 823062063#3 823062063#4 823062063#6">
        <stop busStop="de:vvs:31102_::3-T0-1.4" duration="10" until="0"/> <!-- Oberessl. Gartenstadt -->
        <stop busStop="de:vvs:31102_::3-T0-1.5" duration="10" until="60"/> <!-- Oberessl. Weiherstraße -->
        <stop busStop="de:vvs:31102_::3-T0-1.6" duration="10" until="120"/> <!-- Oberesslingen Zimmerbachstr. -->
        <stop busStop="de:vvs:31101_::1-T0-100.15" duration="10" until="180"/> <!-- Oberesslingen Herderstr. -->
        <stop busStop="de:vvs:31102_::3-T0-1.8" duration="10" until="240"/> <!-- Oberesslingen Kreuzstr. -->
        <stop busStop="de:vvs:31102_::3-T0-1.9" duration="10" until="300"/> <!-- Oberessl. Paracelsusstraße -->
        <stop busStop="de:vvs:31102_::3-T0-1.10" duration="10" until="420"/> <!-- Esslingen (N) Reutlinger Str. -->
        <stop busStop="de:vvs:31102_::3-T0-1.11" duration="10" until="480"/> <!-- Essl.(N) Ebershaldenfriedhof -->
        <stop busStop="de:vvs:31102_::3-T0-1.12" duration="10" until="600"/> <!-- Esslingen (N) Neckar Forum -->
        <stop busStop="de:vvs:31102_::3-T0-1.13" duration="10" until="660"/> <!-- Esslingen (N) Marktplatz -->
        <stop busStop="de:vvs:31102_::3-T0-1.14" duration="10" until="720"/> <!-- Esslingen (N) Schelztor -->
        <stop busStop="de:vvs:31101_::1-T0-100.8" duration="10" until="1020"/> <!-- Esslingen (N) ZOB -->
        <stop busStop="de:vvs:31101_::1-T0-100.9" duration="10" until="1080"/> <!-- Esslingen (N) Pliensauturm -->
        <stop busStop="de:vvs:31102_::3-T0-1.17" duration="10" until="1140"/> <!-- Esslingen (N) Maille -->
        <stop busStop="de:vvs:31102_::3-T0-1.18" duration="10" until="1260"/> <!-- Pliensauv. Stuttgarter Str. -->
        <stop busStop="de:vvs:31102_::3-T0-1.19" duration="10" until="1320"/> <!-- Pliensauvorstadt K.-Pfaff-Str. -->
        <stop busStop="de:vvs:31102_::3-T0-1.20" duration="10" until="1440"/> <!-- Pliensauv. E.-Bauer-Straße -->
        <stop busStop="de:vvs:31102_::3-T0-1.21" duration="10" until="1560"/> <!-- Weil Sportpark Weil -->
        <stop busStop="de:vvs:31102_::3-T0-1.22" duration="10" until="1620"/> <!-- Weil Königsallee -->
        <stop busStop="de:vvs:31102_::3-T0-1.23" duration="10" until="1680"/> <!-- Weil Gestütsweg -->
        <stop busStop="de:vvs:31102_::3-T0-1.24" duration="10" until="1740"/> <!-- Weil Wannenrain -->
        <stop busStop="de:vvs:31102_::3-T0-1.25" duration="10" until="1800"/> <!-- Weil -->
        <stop busStop="de:vvs:31102_::3-T0-1.26" duration="10" until="1860"/> <!-- Weil Württembergstr. -->
        <stop busStop="de:vvs:31101_::1-T0-125.14" duration="10" until="2100"/> <!-- Mettingen Alte Schifffahrt -->
        <stop busStop="de:vvs:31101_::1-T0-125.15" duration="10" until="2220"/> <!-- Mettingen Bf -->
    </route>
    <route id="de:vvs:31102_::3-T0-1020003" edges="-23439929#0 -23439923 37177743#0 37177743#1 37177743#2 391001058 387401249#1 387401249#2 283020993#1 283020993#3 283020993#4 -25973409#3 -25973409#2 -25973409#1 -4811464 4807776#0 4807776#1 758088375#0 38361908#1 758088376#0 23725458#1 23725458#3 23725458#4 23725458#5 281956705#0 281956705#4 281956700#0 281956700#1 8026683#0 8026683#1 8026683#4 8026683#5 8026683#7 8026683#8 8026683#9 -23439978#6 -23439978#5 -23439978#3 -23439978#2 -23439978#1 -23439978#0 -169224407#3 -169224407#2 -169224407#1 -169224407#0 -4807759#5 -4807759#2 4807765#0 4807765#1 4807765#4 29139497#0 29139497#2 23320738#0 23320738#1 23320738#2 29138345 202572130 78043851 94166210#0 94166210#1 386832701#0 386832701#1 442274134 386832702 -378237356 -23316466 442274132 442274138 386832703#0 386832703#1 135078201 -283413806 -316354387#0 156260258 386500268#1 4807839 384972984 384972985 332292229 -468914851 -939228251 -911970185 -911970184 -350217704#4 -350217704#3 -350217704#2 -350217704#0 109592895 17097227 290577629#0 1157387454#0 1157387454#1 138203609#0 138203610 387155262 156260255#0 156260255#1 156260255#2 156260255#3 138203607 4807840 26738365#0 26738365#1 265461450 423481774#0 423481774#1 220150010 10492736 345736590 345736590-AddedOffRampEdge 345736580 180667064#0 345736584 180667070 -692610297 -900882212 -169097419#1 -900882211#1 -900882210 -111177314#4 -111177314#2 -111177314#1 -111177314#0 -911891312 -687182914#2 -687182914#1 -687182914#0 692610318#1 911891324 911891320 23093000#1 911891319#1 692610317#1 692610317#2 383945640 169096205 -387498727#1 -387498727#0 -387498728#3 -387498728#2 -387498728#1 -387498728#0 -17096022 9054644 978314929 37721065#0 37721065#1 37721066#0 37721066#1 261543559 261543561#0 261543562#1 383983734 -261543560#1 -261543560#0 -169095987 -167641315#2 -167641315#0 -118976653 -1088247375 -448974992#2 -448974992#1 -448974992#0 -23108338 -23119545 -4066943#6 -4066943#5 -4066943#3 -4066943#2 -4066943#0 -432904515 -432904514 899604572#0 899604572#2 1088871993#0 1088871993#1 448974993#0 448974993#1 448974993#2 169095987 261543560#0 261543560#1 176337397 261543547#0 176337392 261543546 176337395 -176337394 -4067008 -24447633 -261543534 300813715#1 383945632 261543531#0 261543531#1 243261570-AddedOnRampEdge 243261570 243261558 24447619 243261573 10424180 261563343 613717242 -545334725 -154234474 -422603723 10424182 422603725#0 158515349#1 158513383#0 158513383#1 87506019 314882256 -548460251 -200297092 -200297090 -548463240 -314882254#2 5783243#0 154230476 570009376#0 570009376#1 570009371#0 974776882 974776881#1 974776881#2 974776881#3 387401262#0 387401262#1 387401262#3 387401262#4 387401262#5 591252083#0 591252082 896339462 273169656#0 4067157 273169649#0 273169649#1 146908203#0 146908203#1 146908203#2 146908203#3 661600434#0 661600434#1 383945635#1 383945635#2 823062063#1 823062063#2 823062063#3 823062063#4 823062063#6">
        <stop busStop="de:vvs:31102_::3-T0-1.4" duration="10" until="0"/> <!-- Oberessl. Gartenstadt -->
        <stop busStop="de:vvs:31102_::3-T0-1.5" duration="10" until="60"/> <!-- Oberessl. Weiherstraße -->
        <stop busStop="de:vvs:31102_::3-T0-1.6" duration="10" until="120"/> <!-- Oberesslingen Zimmerbachstr. -->
        <stop busStop="de:vvs:31101_::1-T0-100.15" duration="10" until="180"/> <!-- Oberesslingen Herderstr. -->
        <stop busStop="de:vvs:31102_::3-T0-1.8" duration="10" until="240"/> <!-- Oberesslingen Kreuzstr. -->
        <stop busStop="de:vvs:31102_::3-T0-1.9" duration="10" until="300"/> <!-- Oberessl. Paracelsusstraße -->
        <stop busStop="de:vvs:31102_::3-T0-1.10" duration="10" until="420"/> <!-- Esslingen (N) Reutlinger Str. -->
        <stop busStop="de:vvs:31102_::3-T0-1.11" duration="10" until="480"/> <!-- Essl.(N) Ebershaldenfriedhof -->
        <stop busStop="de:vvs:31102_::3-T0-1.12" duration="10" until="600"/> <!-- Esslingen (N) Neckar Forum -->
        <stop busStop="de:vvs:31102_::3-T0-1.13" duration="10" until="660"/> <!-- Esslingen (N) Marktplatz -->
        <stop busStop="de:vvs:31102_::3-T0-1.14" duration="10" until="720"/> <!-- Esslingen (N) Schelztor -->
        <stop busStop="de:vvs:31101_::1-T0-100.8" duration="10" until="1020"/> <!-- Esslingen (N) ZOB -->
        <stop busStop="de:vvs:31101_::1-T0-100.9" duration="10" until="1080"/> <!-- Esslingen (N) Pliensauturm -->
        <stop busStop="de:vvs:31102_::3-T0-1.17" duration="10" until="1140"/> <!-- Esslingen (N) Maille -->
        <stop busStop="de:vvs:31102_::3-T0-1.18" duration="10" until="1260"/> <!-- Pliensauv. Stuttgarter Str. -->
        <stop busStop="de:vvs:31102_::3-T0-1.19" duration="10" until="1320"/> <!-- Pliensauvorstadt K.-Pfaff-Str. -->
        <stop busStop="de:vvs:31102_::3-T0-1.20" duration="10" until="1440"/> <!-- Pliensauv. E.-Bauer-Straße -->
        <stop busStop="de:vvs:31102_::3-T0-1.21" duration="10" until="1560"/> <!-- Weil Sportpark Weil -->
        <stop busStop="de:vvs:31102_::3-T0-1.22" duration="10" until="1620"/> <!-- Weil Königsallee -->
        <stop busStop="de:vvs:31102_::3-T0-1.23" duration="10" until="1680"/> <!-- Weil Gestütsweg -->
        <stop busStop="de:vvs:31102_::3-T0-1.24" duration="10" until="1740"/> <!-- Weil Wannenrain -->
        <stop busStop="de:vvs:31102_::3-T0-1.25" duration="10" until="1800"/> <!-- Weil -->
        <stop busStop="de:vvs:31102_::3-T0-1.26" duration="10" until="1860"/> <!-- Weil Württembergstr. -->
        <stop busStop="de:vvs:31101_::1-T0-125.14" duration="10" until="2100"/> <!-- Mettingen Alte Schifffahrt -->