<?xml version="1.0" encoding="UTF-8"?>

<!-- generated on 2024-04-12 23:35:12.797664 by ptlines2flows.py v1_19_0+0000-baa66a0f364
<configuration>
    <net-file value="last.net.xml"/>
    <ptlines-file value="lptlines.xml"/>
    <ptstops-file value="ladditional.xml"/>
    <output-file value="lflows.rou.xml"/>
    <period value="1200.0"/>
    <end value="36000000.0"/>
    <ignore-errors value="True"/>
    <vtype-prefix value="pt_"/>
    <verbose value="True"/>
</configuration>
-->

<routes xmlns:xsi="http://www.w3.org/2001/XMLSchema-instance" xsi:noNamespaceSchemaLocation="http://sumo.dlr.de/xsd/routes_file.xsd">
    <vType id="pt_bus" vClass="bus"/>
    <vType id="pt_tram" vClass="tram"/>
    <vType id="pt_train" vClass="rail"/>
    <vType id="pt_subway" vClass="rail_urban"/>
    <vType id="pt_light_rail" vClass="rail_urban"/>
    <vType id="pt_monorail" vClass="rail_urban"/>
    <vType id="pt_trolleybus" vClass="bus"/>
    <vType id="pt_minibus" vClass="bus"/>
    <vType id="pt_share_taxi" vClass="taxi"/>
    <vType id="pt_aerialway" vClass="rail_urban" length="2.5" width="2" personCapacity="4"/>
    <vType id="pt_ferry" vClass="ship"/>
    <route id="pt_bus_N177:0" edges="418182139#1" >
        <stop busStop="4186355782" duration="20" until="40.0"/> <!-- Stuttgart-Airport-Busterminal -->
        <stop busStop="4186355762" duration="20" until="76.0"/> <!-- Stuttgart-Airport-Busterminal -->
    </route>
    <route id="pt_bus_57:0" color="16,38,148" edges="10505085#2 175716649#1 175716649#2 175716649#3 416093890 -5385358#5 -5385358#4 -5385358#3 -5385358#2 -5385358#1 -5385358#0 -175716646#1 -175716646#0" >
        <stop busStop="1862781875" duration="20" until="31.0"/> <!-- Alter Gutshof -->
        <stop busStop="-1774426434" duration="20" until="93.0"/> <!-- Burgholzhof -->
    </route>
    <route id="pt_bus_424:1" edges="147741978#0 147741978#1 147741978#2 147741978#3 301827449 1194960020#0 1194960020#1 1194960019#1 -160978314 -387123858" >
        <stop busStop="2721681302" duration="20" until="31.0"/> <!-- Residenzschloss -->
        <stop busStop="-3904520577" duration="20" until="107.0"/> <!-- Rathaus -->
    </route>
    <route id="pt_bus_382:0" edges="913989896#1 914279899 914279898 585205625 439708423 30380003#0 30380003#1 239215808 984968120 4309540 41947050#0 41947050#1 41947050#2 41947050#3" >
        <stop busStop="4483299205" duration="20" until="37.0"/> <!-- Backnang ZOB Bstg. 3A -->
        <stop busStop="1818226320" duration="20" until="136.0"/> <!-- Backnang Schillerplatz II -->
    </route>
    <route id="pt_bus_465:0" edges="-851790043#0 851831174 851790043#1 851790043#2 851790043#3 851790043#4 851790043#5 301611628#0 301611628#1 301611628#2 301611628#3 982268867 301663643#0 301663643#1 301611573#0 301611573#1 301663644#0 301663644#1" >
        <stop busStop="-7945007327" duration="20" until="34.0"/> <!-- Schulzentrum -->
        <stop busStop="1586592280" duration="20" until="137.0"/> <!-- Großbottwar Rosenplatz -->
    </route>
    <route id="pt_bus_N177:1" edges="418182139#1" >
        <stop busStop="4186355782" duration="20" until="104.0"/> <!-- Stuttgart-Airport-Busterminal -->
        <stop busStop="4186355762" duration="20" until="140.0"/> <!-- Stuttgart-Airport-Busterminal -->
    </route>
    <route id="pt_bus_360:0" edges="720007104#1 584868111#1 -584868111#1 -584868111#0 -720007104#0 5079208#3 148947588#0 148947588#1 148947588#2 148947588#3 148947588#4 148947588#5 914504799 918190594 914504802 534897045#0 534897045#1" >
        <stop busStop="5589996688" duration="20" until="38.0"/> <!-- Backnang, Rietenauer Weg -->
        <stop busStop="10207148051" duration="20" until="140.0"/> <!-- Backnang, Dresdener Ring -->
    </route>
    <route id="pt_bus_567A:1" edges="515814569 28175491#1 28175491#2 28175491#3 28175491#4 28175491#5 28175491#6 28583192#0 28583192#1 173189752 28583191#0 28583191#1 173189747#0" >
        <stop busStop="1747151611" duration="20" until="37.0"/> <!-- Kleiningersheim Blumenstraße -->
        <stop busStop="312870328" duration="20" until="145.0"/> <!-- Schloßstraße -->
    </route>
    <route id="pt_bus_567A:0" edges="-173189747#0 -28583191#1 -28583191#0 -173189752 -28583192#1 -28583192#0 -28175491#6 -28175491#5 -28175491#4 -28175491#3 -28175491#2 -28175491#1 -28175491#0" >
        <stop busStop="-312870328" duration="20" until="39.0"/> <!-- Schloßstraße -->
        <stop busStop="-1747151611" duration="20" until="149.0"/> <!-- Kleiningersheim Blumenstraße -->
    </route>
    <route id="pt_bus_429:0" edges="854860500#3 857104549#0 857104549#1 857104549#2 -857104548 -854860500#2 -854860500#1 -854860500#0 -121296505 -22887439 639710271 753732223#0 753732223#1 10869753#0 10869753#1 10869753#2 350039934#0 350039934#1" >
        <stop busStop="21585251" duration="20" until="54.0"/> <!-- Kornwestheim W & W -->
        <stop busStop="3559066211" duration="20" until="155.0"/> <!-- Wüstenrot -->
    </route>
    <route id="pt_bus_64:1" color="57,162,134" edges="168510739#2 168510739#3 168510739#4 168510739#5" >
        <stop busStop="1672755448" duration="20" until="69.0"/> <!-- Eselweg -->
        <stop busStop="1672755469" duration="20" until="153.0"/> <!-- Filderblickweg -->
    </route>
    <route id="pt_bus_383:0" edges="914014960 913989896#1 914279899 914279898 585205625 439708423 30380003#0 30380003#1 239215808 984968120 4309540 41947050#0 41947050#1 41947050#2 41947050#3" >
        <stop busStop="4483299201" duration="20" until="41.0"/> <!-- Backnang ZOB Bstg. 3B -->
        <stop busStop="1818226320" duration="20" until="174.0"/> <!-- Backnang Schillerplatz II -->
    </route>
    <route id="pt_bus_771:0" edges="418182139#1" >
        <stop busStop="4186356390" duration="20" until="37.0"/> <!-- Stuttgart-Airport-Busterminal -->
        <stop busStop="4186355782" duration="20" until="136.0"/> <!-- Stuttgart-Airport-Busterminal -->
    </route>
    <route id="pt_bus_446:1" edges="515814569 28175491#1 28175491#2 28175491#3 28175491#4 28175491#5 28175491#6 28583192#0 28583192#1 173189752 28583191#0 28583191#1 173189747#0" >
        <stop busStop="1747151611" duration="20" until="37.0"/> <!-- Kleiningersheim Blumenstraße -->
        <stop busStop="312870328" duration="20" until="148.0"/> <!-- Schloßstraße -->
    </route>
    <route id="pt_bus_236:0" edges="640655568#1" >
        <stop busStop="4186356400" duration="20" until="115.0"/> <!-- Stuttgart-Airport-Busterminal -->
        <stop busStop="4186356396" duration="20" until="152.0"/> <!-- Stuttgart-Airport-Busterminal -->
    </route>
    <route id="pt_light_rail_U3:0" color="147,95,57" edges="673702785 57981216#1 57981216#2 57981216#3 57981216#4" >
        <stop busStop="1745866243" duration="20" until="36.0"/> <!-- Plieningen -->
        <stop busStop="9936190" duration="20" until="193.0"/> <!-- Landhaus -->
    </route>
    <route id="pt_light_rail_U3:1" color="147,95,57" edges="36824689#0 36824689#1 36824689#2 36824689#3 36824689#4" >
        <stop busStop="4165943334" duration="20" until="50.0"/> <!-- Landhaus -->
        <stop busStop="3750538853" duration="20" until="205.0"/> <!-- Plieningen -->
    </route>
    <route id="pt_bus_567:0" edges="1133006147 58727241 261954409#0 261954409#1 457657437 -30451863#4 -30451863#3 -30451863#2 -30451863#1 -30451863#0 262055919 262055920#0 262055920#1 262055920#2 -262055920#2 -262055920#1 -262055920#0 -262055919 -145551547#11 -145551547#10 -145551547#9 -145551547#8 -145551547#7 -145551547#6 -145551547#5 -145551547#4 -145551547#3 -145551547#2 -145551547#1 -145551547#0 -48370504#6 -48370504#5 -48370504#4 -48370504#3 -48370504#2 -48370504#1 -48370504#0 -441219119 -145551546#2 -145551546#1" >
        <stop busStop="4776464053" duration="20" until="34.0"/> <!-- Wiegehalle -->
        <stop busStop="-351793314" duration="20" until="115.0"/> <!-- Pleidelsheim Hauptstraße -->
        <stop busStop="-9879763215" duration="20" until="196.0"/> <!-- Pleidelsheim Am Friedhof -->
    </route>
    <route id="pt_bus_161:1" edges="24615473#1 24615473#2 24615473#3 24615473#4 431443124 24615475#1 24615475#2 266410242#0 266410242#1 266410242#2 266410242#3 266410242#4 266410242#5 266410242#6 934255343" >
        <stop busStop="8607716977" duration="20" until="41.0"/> <!-- Ötlingen Fabrikstraße -->
        <stop busStop="8607772908" duration="20" until="114.0"/> <!-- Ötlingen Haldenstraße -->
        <stop busStop="8607772912" duration="20" until="204.0"/> <!-- Ötlingen Halde -->
    </route>
    <route id="pt_bus_393:0" edges="913989901 585205625 439708423 30380003#0 30380003#1 239215808 984968120 4309540 41947050#0 41947050#1 41947050#2 41947050#3" >
        <stop busStop="4483299213" duration="20" until="40.0"/> <!-- Backnang ZOB Bstg. 5A -->
        <stop busStop="1818226320" duration="20" until="212.0"/> <!-- Backnang Schillerplatz II -->
    </route>
    <route id="pt_bus_806:0" edges="418182190#1 466414741#1 466414741#2 631635487 418182184 631635486 418182152 1019173181#0 1019173181#1 295514865#0 295514865#1 295514865#2 244610006 99925888#0 99925888#1 99925888#2 455395620 1025932098 466414726 631635489 631635488 418182185 418182190#0 418182190#1" >
        <stop busStop="4186355742" duration="20" until="47.0"/> <!-- Flughafen/Messe (SAB) -->
        <stop busStop="9617181967" duration="20" until="175.0"/> <!-- Flughafen/Messe Bussteig 3 -->
    </route>
    <route id="pt_bus_40:0" color="252,114,182" edges="25843813#4 598735424#1 598735424#2 598735424#3 39342978#0 39342978#1 39342978#2 598740476 598735440 605344279 24424794#0 24424794#1 24424794#2 613728370#0 613728370#1 605357264#0 605357264#1 966096653 605357270#1 605357270#2 150035033#0 150035033#1" >
        <stop busStop="316960434" duration="20" until="31.0"/> <!-- Wagenburgstraße -->
        <stop busStop="279923467" duration="20" until="163.0"/> <!-- Wunnensteinstraße -->
        <stop busStop="279923482" duration="20" until="222.0"/> <!-- Tunnel Ostportal -->
    </route>
    <route id="pt_bus_144:1" edges="674249748 170626219#0 170626219#1 170626220 1061883492 216888462#0 216888462#1 216888462#2 22634250 116522238#0 116522238#1 116522238#2 116522238#3 315120913#0 315120913#1 315120913#2 286132329 385735840 23252755#0 23252755#1 -24008868 -674222890 -1060318655 -8226322#2 -8226322#1 -8226322#0 39035540#1 -120536141#9 -120536141#8 -120536141#7 -120536141#6 -120536141#5 -120536141#4 -120536141#3 -120536141#2 -120536141#1" >
        <stop busStop="6314074427" duration="20" until="31.0"/> <!-- Plochingen ZOB -->
        <stop busStop="6314074424" duration="20" until="104.0"/> <!-- Eisenbahnstraße -->
        <stop busStop="-6314331874" duration="20" until="224.0"/> <!-- Plochingen, Ulmer Straße -->
    </route>
    <route id="pt_bus_X82:0" color="180,122,117" edges="418182190#1 466414741#1 466414741#2 631635487 418182184 631635486 418182152 1019173181#0 1019173181#1 295514865#0 295514865#1 295514865#2 244610006 99925888#0 99925888#1 99925888#2 455395620 1025932098 466414726 631635489 631635488 418182185 418182190#0 418182190#1" >
        <stop busStop="4186355723" duration="20" until="84.0"/> <!-- Flughafen/Messe (SAB) -->
        <stop busStop="9617181968" duration="20" until="214.0"/> <!-- Flughafen/Messe Bussteig 2 -->
    </route>
    <route id="pt_bus_47:0" color="255,46,23" edges="277705798#0 277705798#1 277705798#2 277705798#3 150035031#0 150035031#1 973053772#0 973053772#1 973053772#2 973053771#0 973053771#1 277705796#0 277705796#1 277705796#2 277705796#3 868389478 277706938#1 598735429 -598740476 -39342978#2 -39342978#1 -39342978#0 -598735424#3 -598735424#2 -598735424#1 -598735424#0" >
        <stop busStop="279923470" duration="20" until="36.0"/> <!-- Tunnel Ostportal -->
        <stop busStop="473567403" duration="20" until="146.0"/> <!-- Wunnensteinstraße -->
        <stop busStop="-316960434" duration="20" until="246.0"/> <!-- Wagenburgstraße -->
    </route>
    <route id="pt_bus_101:0" edges="640655568#1 418182139#1" >
        <stop busStop="4186356408" duration="20" until="38.0"/> <!-- Stuttgart-Airport-Busterminal -->
        <stop busStop="4186356400" duration="20" until="79.0"/> <!-- Stuttgart-Airport-Busterminal -->
        <stop busStop="4186356390" duration="20" until="147.0"/> <!-- Stuttgart-Airport-Busterminal -->
        <stop busStop="4186355782" duration="20" until="215.0"/> <!-- Stuttgart-Airport-Busterminal -->
        <stop busStop="4186355762" duration="20" until="251.0"/> <!-- Stuttgart-Airport-Busterminal -->
    </route>
    <route id="pt_bus_390:0" edges="967236748#2 967236748#3 967236748#4 10871574#1 -149137453#3 -149137453#2 -149137453#1 -149137453#0 -1143951005 454554651#0 454554651#1 454554651#2 1110319016#0 1110319016#1 48519120#0 48519120#1 -439843322 -439866511 -78591331 -439866507#0 149137484 -1098949799#1 -1098949799#0 -78591332#1 -78591332#0 -171717138#1 -171717138#0 -171717141 -984968123 -984968122 859779546#2 859779546#3 914014964 914197062 913989898#1" >
        <stop busStop="1748541902" duration="20" until="35.0"/> <!-- Stadtmühle -->
        <stop busStop="-5590902139" duration="20" until="129.0"/> <!-- Backnang Etzwiesenbrücke -->
        <stop busStop="4483299208" duration="20" until="254.0"/> <!-- Backnang ZOB Bstg. 4A -->
    </route>
    <route id="pt_bus_365:0" edges="914197062 913989898#1 914279898 585205625 439708423 30380003#0 30380003#1 239215808 984968120 4309540 41947050#0 41947050#1 41947050#2 41947050#3" >
        <stop busStop="4483299207" duration="20" until="42.0"/> <!-- Backnang ZOB Bstg. 4B -->
        <stop busStop="1818226320" duration="20" until="250.0"/> <!-- Backnang Schillerplatz II -->
    </route>
    <route id="pt_bus_144:0" edges="120536141#4 120536141#5 120536141#6 120536141#7 120536141#8 120536141#9 39035540#2 39035540#0 8226322#0 8226322#1 8226322#2 1060318655 674222890 24008868 -23252755#1 -23252755#0 23115700 369276037#0 369276037#1 254542711 24008866 23116051#0 23116051#1 315120856#0 315120856#1 22634249 1182508100 216888457#0 216888457#1 216888457#2 -216888456 216888458 705613699 674222880 674239319#1 674249748" >
        <stop busStop="1633002" duration="20" until="36.0"/> <!-- Plochingen, Ulmer Straße -->
        <stop busStop="2022963403" duration="20" until="158.0"/> <!-- Plochingen, Kreissparkasse -->
        <stop busStop="6314074427" duration="20" until="265.0"/> <!-- Plochingen ZOB -->
    </route>
    <route id="pt_bus_413:0" edges="48001601#2 48001601#3 48001601#4 638567085#0 638567085#1 22815879#0 22815879#1 22815879#2 22815879#3 22815879#4 22815879#5 22815879#6 22815879#7 22815879#8 22815879#9 22815879#10 22815879#11 -48001605#2 -48001605#1 -48001605#0 -22870086#2 -22870086#1 -22870086#0" >
        <stop busStop="610462669" duration="20" until="38.0"/> <!-- Hornbergstraße -->
        <stop busStop="610463091" duration="20" until="116.0"/> <!-- Ludwig-Herr-Straße -->
        <stop busStop="-245798822" duration="20" until="179.0"/> <!-- Rechbergstraße -->
        <stop busStop="-610462866" duration="20" until="236.0"/> <!-- Ernst-Sigle-Gymnasium -->
    </route>
    <route id="pt_bus_564:0" edges="416163969#1 28481568#0 28481568#1 -586044529 -26686344#3 -26686344#2 -26686344#1 -26686344#0 23540984 1020907208 1035813229 -1035813267#2 -1035813267#1 -1035813267#0 -301158552 23425507#3 -1035813224 -23424654#4 23541015 169707695#0 169707695#1 -159968134#1 -159968134#0 29233246 137731554 837403166" >
        <stop busStop="252822490" duration="20" until="36.0"/> <!-- Freiberg Bf -->
        <stop busStop="6316017786" duration="20" until="67.0"/> <!-- Freiberg Bahnhof -->
        <stop busStop="4033285226" duration="20" until="270.0"/> <!-- Stadtzentrum -->
    </route>
    <route id="pt_bus_828:0" color="30,101,59" edges="418182190#1 466414741#1 466414741#2 631635487 418182184 631635486 418182152 1019173181#0 1019173181#1 295514865#0 295514865#1 295514865#2 244610006 99925888#0 99925888#1 99925888#2 455395620 1025932098 466414726 631635489 631635488 418182185 418182190#0 418182190#1" >
        <stop busStop="4186355723" duration="20" until="117.0"/> <!-- Flughafen/Messe (SAB) -->
        <stop busStop="9617181968" duration="20" until="248.0"/> <!-- Flughafen/Messe Bussteig 2 -->
    </route>
    <route id="pt_bus_362A:0" edges="383251300#0 383251300#1 -914504802 -918190594 914504798 -148947588#5 -148947588#4 -148947588#3 -148947588#2 -148947588#1 -148947588#0 5079208#4 -5079207#2 -5079207#1 -5079207#0 -534897039 379080044#1 379080044#2 -976070082#2 -976070082#1 -976070082#0 -149137455#5 -149137455#4 -149137455#3 -149137455#2 -149137455#1 -149137455#0 546203459 10873237 -919591728" >
        <stop busStop="10207148052" duration="20" until="41.0"/> <!-- Backnang, Dresdener Ring -->
        <stop busStop="-8728690780" duration="20" until="135.0"/> <!-- Backnang Beim Wasserturm -->
        <stop busStop="-26087841" duration="20" until="199.0"/> <!-- Backnang Rossbergstaffel -->
        <stop busStop="-293879416" duration="20" until="273.0"/> <!-- Backnang Seminar -->
    </route>
    <route id="pt_train_S11:0" color="89,178,67" edges="616248892 250035638#1 250035638#2 24302383#1 454381998 238802296#0 238802296#1 27611508 124984030 32872572 247918392 300240313#1" >
        <stop busStop="3068189360" duration="20" until="67.0"/> <!-- Stuttgart Neckarpark (Mercedes-Benz) -->
        <stop busStop="295264128" duration="20" until="251.0"/> <!-- Bad Cannstatt -->
    </route>
    <route id="pt_bus_564:1" edges="837403166 137731559#1 137731556 137731555 -159968134#2 -169707695#1 -169707695#0 -23541015 23424654#4 23424654#5 -23425507#3 23540130 1035813267#0 1035813267#1 1035813267#2 -1035813229 -1020907208 -23540984 26686344#0 26686344#1 26686344#2 26686344#3 586044529 -416174760 -28481568#0 -837322978" >
        <stop busStop="4033285226" duration="20" until="33.0"/> <!-- Stadtzentrum -->
        <stop busStop="-252822490" duration="20" until="244.0"/> <!-- Freiberg Bf -->
        <stop busStop="-6316017786@6016129" duration="20" until="275.0"/> <!-- Freiberg Bahnhof -->
    </route>
    <route id="pt_bus_760:0" edges="385757589 -674857711 385757589 1050524350#0 1050524350#1 1050524350#2 24782245#0 24782245#1 24782245#2 24782245#3 24782245#4 24782245#5 24782245#6 36729744 39783740#0 39783740#1 -385705998 -432904432#1 -432904432#0 -432904431#1 -432904431#0 -63115243#2 -63115243#1 -63115243#0" >
        <stop busStop="567994435" duration="20" until="36.0"/> <!-- Neuenhaus Kirche -->
        <stop busStop="3464765711" duration="20" until="115.0"/> <!-- Neuenhaus, Kirche -->
        <stop busStop="3890940562" duration="20" until="184.0"/> <!-- Neuenhaus Häfnerstraße -->
        <stop busStop="-1003262549" duration="20" until="275.0"/> <!-- Neuenhaus Im Vogelsang -->
    </route>
    <route id="pt_bus_142:2" edges="674239319#1 674249748 170626219#0 170626219#1 170626220 1061883492 216888462#0 216888462#1 216888462#2 22634250 116522238#0 116522238#1 116522238#2 116522238#3 315120913#0 315120913#1 315120913#2 286132329 385735840 23252755#0 23252755#1 -24008868 -674222890 -1060318655 -8226322#2 -8226322#1 -8226322#0 39035540#1 -120536141#9 -120536141#8 -120536141#7 -120536141#6 -120536141#5 -120536141#4 -120536141#3 -120536141#2 -120536141#1" >
        <stop busStop="4239452367" duration="20" until="39.0"/> <!-- Plochingen ZOB -->
        <stop busStop="6314074424" duration="20" until="144.0"/> <!-- Eisenbahnstraße -->
        <stop busStop="-6314331874" duration="20" until="283.0"/> <!-- Plochingen, Ulmer Straße -->
    </route>
    <route id="pt_bus_384:0" edges="913989896#1 914279899 914279898 585205625 439708423 30380003#0 30380003#1 239215808 984968120 4309540 41947050#0 41947050#1 41947050#2 41947050#3" >
        <stop busStop="4483299205" duration="20" until="37.0"/> <!-- Backnang ZOB Bstg. 3A -->
        <stop busStop="1818226320" duration="20" until="232.0"/> <!-- Backnang Schillerplatz II -->
    </route>
    <route id="pt_bus_40:1" color="252,114,182" edges="277705798#0 277705798#1 277705798#2 277705798#3 150035031#0 150035031#1 973053772#0 973053772#1 973053772#2 973053771#0 973053771#1 277705796#0 277705796#1 277705796#2 277705796#3 868389478 277706938#1 598735429 -598740476 -39342978#2 -39342978#1 -39342978#0 -598735424#3 -598735424#2 -598735424#1 -598735424#0" >
        <stop busStop="279923470" duration="20" until="36.0"/> <!-- Tunnel Ostportal -->
        <stop busStop="473567403" duration="20" until="146.0"/> <!-- Wunnensteinstraße -->
        <stop busStop="-316960434" duration="20" until="276.0"/> <!-- Wagenburgstraße -->
    </route>
    <route id="pt_bus_760:1" edges="63115243#0 63115243#1 63115243#2 432904431#0 432904431#1 432904432#0 432904432#1 241771242 -36729743 -24782245#6 -24782245#5 -24782245#4 -24782245#3 -24782245#2 -24782245#1 -24782245#0 -1050524350#2 -1050524350#1 -1050524350#0 -674857711 385757589 -674857711 385757589" >
        <stop busStop="1003262546" duration="20" until="43.0"/> <!-- Neuenhaus Im Vogelsang -->
        <stop busStop="-246973369" duration="20" until="138.0"/> <!-- Neuenhaus Häfnerstraße -->
        <stop busStop="567994435" duration="20" until="234.0"/> <!-- Neuenhaus Kirche -->
        <stop busStop="3464765711@2044734" duration="20" until="312.0"/> <!-- Neuenhaus, Kirche -->
    </route>
    <route id="pt_bus_47:1" color="255,46,23" edges="25843813#4 598735424#1 598735424#2 598735424#3 39342978#0 39342978#1 39342978#2 598740476 598735440 605344279 24424794#0 24424794#1 24424794#2 613728370#0 613728370#1 605357264#0 605357264#1 966096653 605357270#1 605357270#2 150035033#0 150035033#1" >
        <stop busStop="316960434" duration="20" until="31.0"/> <!-- Wagenburgstraße -->
        <stop busStop="279923467" duration="20" until="168.0"/> <!-- Wunnensteinstraße -->
        <stop busStop="279923482" duration="20" until="279.0"/> <!-- Tunnel Ostportal -->
    </route>
    <route id="pt_bus_101:1" edges="640655568#1 418182139#1" >
        <stop busStop="4186356408" duration="20" until="72.0"/> <!-- Stuttgart-Airport-Busterminal -->
        <stop busStop="4186356400" duration="20" until="114.0"/> <!-- Stuttgart-Airport-Busterminal -->
        <stop busStop="4186356390" duration="20" until="212.0"/> <!-- Stuttgart-Airport-Busterminal -->
        <stop busStop="4186355782" duration="20" until="278.0"/> <!-- Stuttgart-Airport-Busterminal -->
        <stop busStop="4186355762" duration="20" until="315.0"/> <!-- Stuttgart-Airport-Busterminal -->
    </route>
    <route id="pt_train_S11:1" color="89,178,67" edges="300240311#1 210123689 27619429#0 27619429#1 27619429#2 173911959 173911957#0 173911957#1 247918396 27619432#1 14296898#1 14296898#2" >
        <stop busStop="295264127" duration="20" until="57.0"/> <!-- Bad Cannstatt -->
        <stop busStop="3068189353" duration="20" until="241.0"/> <!-- Stuttgart Neckarpark (Mercedes-Benz) -->
    </route>
    <route id="pt_bus_142:3" edges="674239319#1 674249748 170626219#0 170626219#1 170626220 1061883492 216888462#0 216888462#1 216888462#2 22634250 116522238#0 116522238#1 116522238#2 116522238#3 315120913#0 315120913#1 315120913#2 286132329 385735840 23252755#0 23252755#1 -24008868 -674222890 -1060318655 -8226322#2 -8226322#1 -8226322#0 39035540#1 -120536141#9 -120536141#8 -120536141#7 -120536141#6 -120536141#5 -120536141#4 -120536141#3 -120536141#2 -120536141#1" >
        <stop busStop="4239452367" duration="20" until="72.0"/> <!-- Plochingen ZOB -->
        <stop busStop="6314074424" duration="20" until="177.0"/> <!-- Eisenbahnstraße -->
        <stop busStop="-6314331874" duration="20" until="315.0"/> <!-- Plochingen, Ulmer Straße -->
    </route>
    <route id="pt_bus_381:0" edges="913989896#1 914279899 914279898 585205625 439708423 30380003#0 30380003#1 239215808 984968120 4309540 41947050#0 41947050#1 41947050#2 41947050#3" >
        <stop busStop="4483299205" duration="20" until="39.0"/> <!-- Backnang ZOB Bstg. 3A -->
        <stop busStop="1818226320" duration="20" until="178.0"/> <!-- Backnang Schillerplatz II -->
    </route>
    <route id="pt_bus_262:0" edges="120536141#4 120536141#5 120536141#6 120536141#7 120536141#8 120536141#9 39035540#2 39035540#0 8226322#0 8226322#1 8226322#2 1060318655 674222890 24008868 -23252755#1 -23252755#0 23115700 369276037#0 369276037#1 254542711 24008866 23116051#0 23116051#1 315120856#0 315120856#1 22634249 1182508100 216888457#0 216888457#1 216888457#2 -216888456 216888458 705613699 674222880" >
        <stop busStop="1633002" duration="20" until="36.0"/> <!-- Plochingen, Ulmer Straße -->
        <stop busStop="2022963403" duration="20" until="201.0"/> <!-- Plochingen, Kreissparkasse -->
        <stop busStop="3975942755" duration="20" until="292.0"/> <!-- Plochingen, ZOB Bstg. 2 -->
    </route>
    <route id="pt_bus_52:1" color="252,114,182" edges="358636427#0 358636427#1 358636427#2 358636427#3 358636426#0 358636426#1 358636426#2 358636426#3 358636424#0 358636424#1 358636428#0 358636428#1 358636428#2 358636428#3 358636428#4 358636425 537985409#0 -413175513#1 -413175513#0 -575688280#1 -575688280#0 -413175519#3 -413175519#2 -413175519#1 -413175519#0 -8585625#10 -8585625#9 -8585625#8 -8585625#7 -8585625#6 -8585625#5 -8585625#4 -8585625#3 -8585625#2 -8585625#1 -8585625#0 -575688286#2 -575688286#1 -575688286#0 -575623485 -413175516#2 -413175516#1 -413175516#0 633595771 413175510#0 413175510#1 431408118" >
        <stop busStop="1775028029" duration="20" until="37.0"/> <!-- Fürfelder Straße -->
        <stop busStop="-1775003559" duration="20" until="152.0"/> <!-- Tapachstraße -->
        <stop busStop="-1663084380" duration="20" until="220.0"/> <!-- Rilke Realschule -->
        <stop busStop="35827937" duration="20" until="340.0"/> <!-- Im Raiser -->
    </route>
    <route id="pt_bus_414:0" edges="22950541#0 22950541#1 22950541#2 22985743#3 -287055235#5 -287055235#4 -287055235#3 -287055235#2 -287055235#1 -287055235#0 -638975233 -638988295#1 -638988295#0 -22880283 638975226 638988297#0 638988297#1 638988298 638975222 1017300240 120077354#0 120077354#1 120077354#2 120077354#3 120077354#4 120077354#5 120077354#6 120077354#7 120077354#8 20598848#0 20598848#1" >
        <stop busStop="571271394" duration="20" until="41.0"/> <!-- Im Wiesengrund -->
        <stop busStop="-6023463314" duration="20" until="113.0"/> <!-- Mühlhäuserstraße -->
        <stop busStop="220587165" duration="20" until="230.0"/> <!-- Im Weizen -->
        <stop busStop="618859407" duration="20" until="319.0"/> <!-- Zeppelinstraße -->
    </route>
    <route id="pt_bus_446:0" edges="416163969#1 28481568#0 28481568#1 -586044529 -26686344#3 -26686344#2 -26686344#1 -26686344#0 23540984 1020907208 1035813229 -1035813267#2 -1035813267#1 -1035813267#0 -301158552 23425507#3 -1035813224 -23424654#4 23541015 169707695#0 169707695#1 -159968134#1 -159968134#0 29233246 137731554 29233248" >
        <stop busStop="252822490" duration="20" until="36.0"/> <!-- Freiberg Bf -->
        <stop busStop="6316017786" duration="20" until="67.0"/> <!-- Freiberg Bahnhof -->
        <stop busStop="4169860917" duration="20" until="272.0"/> <!-- Stadtzentrum -->
    </route>
    <route id="pt_bus_64:0" color="57,162,134" edges="25660925#1 168510742#1 -81119862 -13864407#2 -13864407#1 -13864407#0 540209944#0 540209944#1 13864463 -168510739#5 -168510739#4 -168510739#3 -168510739#2 -168510739#1 -168510739#0 -23061774#1 -23061774#0 33072214#0 33072214#1" >
        <stop busStop="1796362860" duration="20" until="34.0"/> <!-- Stelle -->
        <stop busStop="-1672755469" duration="20" until="154.0"/> <!-- Filderblickweg -->
        <stop busStop="-1672755448" duration="20" until="239.0"/> <!-- Eselweg -->
        <stop busStop="373109699" duration="20" until="349.0"/> <!-- Frauenkopf -->
    </route>
    <route id="pt_bus_771:1" edges="418182139#1" >
        <stop busStop="4186356390" duration="20" until="35.0"/> <!-- Stuttgart-Airport-Busterminal -->
        <stop busStop="4186355782" duration="20" until="132.0"/> <!-- Stuttgart-Airport-Busterminal -->
    </route>
    <route id="pt_bus_367A:3" edges="919591728 546203461 546203460 149137455#0 149137455#1 149137455#2 149137455#3 149137455#4 149137455#5 976070082#0 976070082#1 976070082#2 379080044#3 534897039 5079207#0 5079207#1 5079207#2 5079208#2 5079208#3 148947588#0 148947588#1 148947588#2 148947588#3 148947588#4 148947588#5 914504799 918190594 914504802 534897045#0 534897045#1 534897045#2 534897047 1000927251#0 1000927251#1 976070085 934320434#0 934320434#1 934320436#0 934320436#1 934320435#0 934320435#1 934320433#0" >
        <stop busStop="293879416" duration="20" until="36.0"/> <!-- Backnang Seminar -->
        <stop busStop="26087841" duration="20" until="104.0"/> <!-- Backnang Rossbergstaffel -->
        <stop busStop="8728690780" duration="20" until="167.0"/> <!-- Backnang Beim Wasserturm -->
        <stop busStop="10207148051" duration="20" until="261.0"/> <!-- Backnang, Dresdener Ring -->
        <stop busStop="8551710899" duration="20" until="333.0"/> <!-- Backnang Fornsbacher Weg -->
        <stop busStop="8551710900" duration="20" until="364.0"/> <!-- Fornsbacher Weg (Schülerbus 362A) -->
    </route>
    <route id="pt_tram_23:0" color="248,183,16" edges="345910113#3 205396400#2" >
        <stop busStop="4108137716" duration="20" until="31.0"/> <!-- Straßenbahnmuseum -->
        <stop busStop="3460353658" duration="20" until="371.0"/> <!-- Mittnachtstraße -->
    </route>
    <route id="pt_bus_142:0" edges="120536141#4 120536141#5 120536141#6 120536141#7 120536141#8 120536141#9 39035540#2 39035540#0 8226322#0 8226322#1 8226322#2 1060318655 674222890 24008868 -23252755#1 -23252755#0 23115700 369276037#0 369276037#1 254542711 24008866 23116051#0 23116051#1 315120856#0 315120856#1 22634249 1182508100 216888457#0 216888457#1 216888457#2 -216888456 216888458 705613699 674222880 674239319#1" >
        <stop busStop="1633002" duration="20" until="38.0"/> <!-- Plochingen, Ulmer Straße -->
        <stop busStop="2022963403" duration="20" until="200.0"/> <!-- Plochingen, Kreissparkasse -->