<?xml version="1.0" encoding="UTF-8"?>

<!-- generated on 2023-05-18 14:39:28.883361 by osmWebWizard.py v1_16_0+0000-94ec4c6cd72
<configuration>
    <begin value="0"/>
    <end value="3600"/>
    <fringe-factor value="40"/>
    <fringe-start-attributes value="departSpeed=&quot;max&quot;"/>
    <insertion-density value="2.0"/>
    <min-distance.fringe value="10.0"/>
    <min-distance value="2400.0"/>
    <net-file value="C:\Users\sader\Sumo\2023-05-18-14-37-49\osm.net.xml.gz"/>
    <remove-loops value="True"/>
    <route-file value="C:\Users\sader\Sumo\2023-05-18-14-37-49\osm.rail.rou.xml"/>
    <trip-attributes value="departLane=&quot;best&quot;"/>
    <output-trip-file value="C:\Users\sader\Sumo\2023-05-18-14-37-49\osm.rail.trips.xml"/>
    <prefix value="rail"/>
    <validate value="True"/>
    <vclass value="rail"/>
    <vehicle-class value="rail"/>
</configuration>
-->

<!-- generated on 2023-05-18 14:39:28 by Eclipse SUMO duarouter Version 1.16.0
<configuration xmlns:xsi="http://www.w3.org/2001/XMLSchema-instance" xsi:noNamespaceSchemaLocation="http://sumo.dlr.de/xsd/duarouterConfiguration.xsd">

    <input>
        <net-file value="C:\Users\sader\Sumo\2023-05-18-14-37-49\osm.net.xml.gz"/>
        <route-files value="C:\Users\sader\Sumo\2023-05-18-14-37-49\osm.rail.trips.xml"/>
    </input>

    <output>
        <output-file value="C:\Users\sader\Sumo\2023-05-18-14-37-49\osm.rail.trips.xml.tmp"/>
        <alternatives-output value="NUL"/>
        <write-trips value="true"/>
    </output>

    <processing>
        <remove-loops value="true"/>
    </processing>

    <time>
        <begin value="0"/>
        <end value="3600"/>
    </time>

    <report>
        <no-warnings value="true"/>
        <ignore-errors value="true"/>
        <no-step-log value="true"/>
    </report>

</configuration>
-->

<routes xmlns:xsi="http://www.w3.org/2001/XMLSchema-instance" xsi:noNamespaceSchemaLocation="http://sumo.dlr.de/xsd/routes_file.xsd">
    <vType id="rail_rail" vClass="rail"/>
    <trip id="rail0" type="rail_rail" depart="0.00" departLane="best" from="-284659686#0" to="-123444522#0"/>
    <trip id="rail1" type="rail_rail" depart="17.25" departLane="best" from="-445470399#0" to="-292876200#0"/>
    <trip id="rail3" type="rail_rail" depart="51.76" departLane="best" from="102841936" to="-123444522#0"/>
    <trip id="rail4" type="rail_rail" depart="69.02" departLane="best" departSpeed="max" from="-23163786#4" to="-180784439#0"/>
    <trip id="rail5" type="rail_rail" depart="86.27" departLane="best" departSpeed="max" from="292876178#0" to="180784448#4"/>
    <trip id="rail6" type="rail_rail" depart="103.52" departLane="best" departSpeed="max" from="-23163786#4" to="180784454#3"/>
    <trip id="rail13" type="rail_rail" depart="224.30" departLane="best" departSpeed="max" from="102807168#0" to="180784448#4"/>
    <trip id="rail15" type="rail_rail" depart="258.81" departLane="best" departSpeed="max" from="292876200#0" to="-123444522#0"/>
    <trip id="rail16" type="rail_rail" depart="276.06" departLane="best" from="180784434#1" to="-292876200#0"/>
    <trip id="rail17" type="rail_rail" depart="293.31" departLane="best" departSpeed="max" from="102807168#0" to="-292876200#0"/>
    <trip id="rail19" type="rail_rail" depart="327.82" departLane="best" departSpeed="max" from="-180784454#3" to="-292876202#0"/>
    <trip id="rail20" type="rail_rail" depart="345.08" departLane="best" departSpeed="max" from="-180784454#3" to="102841945"/>
    <trip id="rail21" type="rail_rail" depart="362.33" departLane="best" from="-284659686#0" to="-123444522#0"/>
    <trip id="rail23" type="rail_rail" depart="396.84" departLane="best" departSpeed="max" from="292876178#0" to="-123444522#1"/>
    <trip id="rail24" type="rail_rail" depart="414.09" departLane="best" departSpeed="max" from="-393182134" to="-292876200#0"/>
    <trip id="rail25" type="rail_rail" depart="431.34" departLane="best" departSpeed="max" from="180784455" to="68908219#0"/>
    <trip id="rail33" type="rail_rail" depart="569.38" departLane="best" departSpeed="max" from="292876200#0" to="180784448#4"/>
    <trip id="rail34" type="rail_rail" depart="586.63" departLane="best" departSpeed="max" from="-393182134" to="23163786#4"/>
    <trip id="rail36" type="rail_rail" depart="621.14" departLane="best" departSpeed="max" from="123444522#0" to="-292876178#0"/>
    <trip id="rail37" type="rail_rail" depart="638.39" departLane="best" departSpeed="max" from="248760538#0" to="-286146962#0"/>
    <trip id="rail38" type="rail_rail" depart="655.64" departLane="best" from="68908209#0" to="180784448#4"/>
    <trip id="rail40" type="rail_rail" depart="690.15" departLane="best" departSpeed="max" from="-48316096#2" to="-123444522#1"/>
    <trip id="rail41" type="rail_rail" depart="707.41" departLane="best" from="102848507#0" to="48316096#2"/>
    <trip id="rail42" type="rail_rail" depart="724.66" departLane="best" from="68908228#1" to="-248760538#0"/>
    <trip id="rail44" type="rail_rail" depart="759.17" departLane="best" from="102841938" to="-292876200#0"/>
    <trip id="rail45" type="rail_rail" depart="776.42" departLane="best" departSpeed="max" from="180784455" to="-24304026"/>
    <trip id="rail46" type="rail_rail" depart="793.67" departLane="best" departSpeed="max" from="-23163786#4" to="102841940#3"/>
    <trip id="rail48" type="rail_rail" depart="828.18" departLane="best" from="180784439#7" to="-292876200#0"/>
    <trip id="rail50" type="rail_rail" depart="862.69" departLane="best" from="-286146959#1" to="-292876200#0"/>
    <trip id="rail53" type="rail_rail" depart="914.45" departLane="best" departSpeed="max" from="-23163786#4" to="-248760538#0"/>
    <trip id="rail55" type="rail_rail" depart="948.96" departLane="best" departSpeed="max" from="123444522#0" to="48316096#2"/>
    <trip id="rail59" type="rail_rail" depart="1017.97" departLane="best" departSpeed="max" from="180784455" to="-123444522#0"/>
    <trip id="rail60" type="rail_rail" depart="1035.23" departLane="best" departSpeed="max" from="123444522#0" to="-292876200#0"/>
    <trip id="rail63" type="rail_rail" depart="1086.99" departLane="best" departSpeed="max" from="-393182134" to="48316096#2"/>
    <trip id="rail64" type="rail_rail" depart="1104.24" departLane="best" departSpeed="max" from="180784455" to="-292876178#3"/>
    <trip id="rail65" type="rail_rail" depart="1121.50" departLane="best" departSpeed="max" from="-180784448#4" to="102841940#3"/>
    <trip id="rail66" type="rail_rail" depart="1138.75" departLane="best" from="93353181" to="180784454#3"/>
    <trip id="rail70" type="rail_rail" depart="1207.77" departLane="best" from="180784434#1" to="-292876178#0"/>
    <trip id="rail71" type="rail_rail" depart="1225.02" departLane="best" from="-286146962#1" to="-248760538#0"/>
    <trip id="rail75" type="rail_rail" depart="1294.03" departLane="best" from="-286146960#0" to="-123444522#1"/>
    <trip id="rail76" type="rail_rail" depart="1311.29" departLane="best" from="123444522#1" to="180694970#1"/>
    <trip id="rail77" type="rail_rail" depart="1328.54" departLane="best" from="123444522#2" to="-292876200#0"/>
    <trip id="rail79" type="rail_rail" depart="1363.05" departLane="best" departSpeed="max" from="102807168#0" to="-292876178#0"/>
    <trip id="rail82" type="rail_rail" depart="1414.81" departLane="best" departSpeed="max" from="292876178#0" to="-102848495#2"/>
    <trip id="rail84" type="rail_rail" depart="1449.32" departLane="best" departSpeed="max" from="-393182134" to="180784454#3"/>
    <trip id="rail85" type="rail_rail" depart="1466.57" departLane="best" from="-286146959#2" to="68908219#1"/>
    <trip id="rail88" type="rail_rail" depart="1518.33" departLane="best" departSpeed="max" from="445470405" to="180784448#4"/>
    <trip id="rail92" type="rail_rail" depart="1587.35" departLane="best" departSpeed="max" from="-393182134" to="-248760538#0"/>
    <trip id="rail98" type="rail_rail" depart="1690.87" departLane="best" departSpeed="max" from="292876178#0" to="-180784432#0"/>
    <trip id="rail101" type="rail_rail" depart="1742.63" departLane="best" departSpeed="max" from="248760538#0" to="180784439#4"/>
    <trip id="rail102" type="rail_rail" depart="1759.89" departLane="best" from="102841925#0" to="180784454#3"/>
    <trip id="rail104" type="rail_rail" depart="1794.39" departLane="best" departSpeed="max" from="180784455" to="-68908228#0"/>
    <trip id="rail105" type="rail_rail" depart="1811.65" departLane="best" departSpeed="max" from="292876178#0" to="102841940#3"/>
    <trip id="rail106" type="rail_rail" depart="1828.90" departLane="best" departSpeed="max" from="-48316096#2" to="-156199094#2"/>
    <trip id="rail107" type="rail_rail" depart="1846.16" departLane="best" departSpeed="max" from="-180784448#4" to="180694970#1"/>
    <trip id="rail109" type="rail_rail" depart="1880.66" departLane="best" departSpeed="max" from="-48316096#2" to="180784448#4"/>
    <trip id="rail111" type="rail_rail" depart="1915.17" departLane="best" departSpeed="max" from="292876178#0" to="180707827"/>
    <trip id="rail115" type="rail_rail" depart="1984.19" departLane="best" departSpeed="max" from="-23163786#4" to="-123444522#0"/>
    <trip id="rail119" type="rail_rail" depart="2053.20" departLane="best" departSpeed="max" from="123444522#0" to="-292876200#0"/>
    <trip id="rail120" type="rail_rail" depart="2070.45" departLane="best" departSpeed="max" from="292876178#0" to="-102848495#0"/>
    <trip id="rail121" type="rail_rail" depart="2087.71" departLane="best" from="451562803" to="48316096#2"/>
    <trip id="rail123" type="rail_rail" depart="2122.22" departLane="best" from="180707724" to="-123444522#0"/>
    <trip id="rail126" type="rail_rail" depart="2173.98" departLane="best" from="-48316096#0" to="180784448#4"/>
    <trip id="rail128" type="rail_rail" depart="2208.49" departLane="best" departSpeed="max" from="123444522#0" to="48316096#1"/>
    <trip id="rail129" type="rail_rail" depart="2225.74" departLane="best" departSpeed="max" from="-393182134" to="23163786#4"/>
    <trip id="rail130" type="rail_rail" depart="2242.99" departLane="best" from="68908228#1" to="180784448#4"/>
    <trip id="rail132" type="rail_rail" depart="2277.50" departLane="best" departSpeed="max" from="180784455" to="-248760538#0"/>
    <trip id="rail133" type="rail_rail" depart="2294.75" departLane="best" departSpeed="max" from="292876200#0" to="-156199093#0"/>
    <trip id="rail136" type="rail_rail" depart="2346.52" departLane="best" departSpeed="max" from="180784455" to="180784454#3"/>
    <trip id="rail140" type="rail_rail" depart="2415.53" departLane="best" from="102848495#4" to="-248760538#0"/>
    <trip id="rail143" type="rail_rail" depart="2467.29" departLane="best" departSpeed="max" from="-180784448#4" to="180707725"/>
    <trip id="rail144" type="rail_rail" depart="2484.55" departLane="best" departSpeed="max" from="-23163786#4" to="102841940#3"/>
    <trip id="rail145" type="rail_rail" depart="2501.80" departLane="best" from="-48316096#1" to="102841945"/>
    <trip id="rail151" type="rail_rail" depart="2605.32" departLane="best" departSpeed="max" from="445470405" to="-248760538#0"/>
    <trip id="rail161" type="rail_rail" depart="2777.86" departLane="best" departSpeed="max" from="292876200#0" to="180694970#1"/>
    <trip id="rail166" type="rail_rail" depart="2864.13" departLane="best" from="-48316096#0" to="180784448#3"/>
    <trip id="rail167" type="rail_rail" depart="2881.38" departLane="best" from="102848475#1" to="23163786#2"/>
    <trip id="rail168" type="rail_rail" depart="2898.64" departLane="best" departSpeed="max" from="102807168#0" to="-123444522#0"/>
    <trip id="rail169" type="rail_rail" depart="2915.89" departLane="best" departSpeed="max" from="292876200#0" to="102841925#0"/>
    <trip id="rail170" type="rail_rail" depart="2933.14" departLane="best" departSpeed="max" from="123444522#0" to="48316096#2"/>
    <trip id="rail171" type="rail_rail" depart="2950.40" departLane="best" departSpeed="max" from="123444522#0" to="48316096#2"/>
    <trip id="rail173" type="rail_rail" depart="2984.91" departLane="best" departSpeed="max" from="292876200#0" to="102841940#3"/>
    <trip id="rail174" type="rail_rail" depart="3002.16" departLane="best" departSpeed="max" from="-393182134" to="-248760538#0"/>
    <trip id="rail175" type="rail_rail" depart="3019.41" departLane="best" departSpeed="max" from="-23163786#4" to="-248760538#0"/>
    <trip id="rail176" type="rail_rail" depart="3036.67" departLane="best" departSpeed="max" from="180784455" to="48316096#2"/>
    <trip id="rail177" type="rail_rail" depart="3053.92" departLane="best" departSpeed="max" from="-180784454#3" to="-292876200#0"/>
    <trip id="rail178" type="rail_rail" depart="3071.17" departLane="best" departSpeed="max" from="123444522#0" to="292876199#2"/>
    <trip id="rail180" type="rail_rail" depart="3105.68" departLane="best" departSpeed="max" from="-48316096#2" to="-248760538#0"/>
    <trip id="rail182" type="rail_rail" depart="3140.19" departLane="best" departSpeed="max" from="292876200#0" to="-248760538#0"/>
    <trip id="rail187" type="rail_rail" depart="3226.46" departLane="best" from="123444522#3" to="23163786#4"/>
    <trip id="rail189" type="rail_rail" depart="3260.97" departLane="best" from="68908219#0" to="180784454#3"/>
    <trip id="rail192" type="rail_rail" depart="3312.73" departLane="best" departSpeed="max" from="248760538#0" to="23163786#1"/>
    <trip id="rail194" type="rail_rail" depart="3347.24" departLane="best" departSpeed="max" from="-180784454#3" to="-180784439#0"/>
    <trip id="rail195" type="rail_rail" depart="3364.49" departLane="best" departSpeed="max" from="292876200#0" to="180694970#1"/>
    <trip id="rail198" type="rail_rail" depart="3416.25" departLane="best" departSpeed="max" from="-180784454#3" to="102841940#3"/>
    <trip id="rail199" type="rail_rail" depart="3433.50" departLane="best" departSpeed="max" from="445470405" to="180784454#3"/>
    <trip id="rail200" type="rail_rail" depart="3450.76" departLane="best" departSpeed="max" from="-48316096#2" to="-248760538#0"/>
    <trip id="rail201" type="rail_rail" depart="3468.01" departLane="best" departSpeed="max" from="292876200#0" to="-248760538#1"/>
    <trip id="rail203" type="rail_rail" depart="3502.52" departLane="best" departSpeed="max" from="123444522#0" to="-180784439#5"/>
    <trip id="rail207" type="rail_rail" depart="3571.53" departLane="best" from="-286146959#0" to="23163786#4"/>
</routes>
