<?xml version="1.0" encoding="UTF-8"?>

<!-- generated on 2023-12-07 10:19:10.752893 by scenarioFromOSM.py v1_19_0+0000-baa66a0f364
  options: <doubleminus>osm esslingen.osm <doubleminus>out test
-->

<tazs xmlns:xsi="http://www.w3.org/2001/XMLSchema-instance" xsi:noNamespaceSchemaLocation="http://sumo.dlr.de/xsd/taz_file.xsd">
    <!-- id="62412" name="Rems-Murr-Kreis" -->
    <taz id="62412" edges="-39827720 467626084 -36808676 393224807 178564184#1 -178564184#1 -26363102#0 -391912494#2 396566182 -175153837#1 25197945#0 -196221041#1 -467626083#0 680791705#1 -36273412#1 -196221073 -37080409 -1135393887 356730083#0 467626083#0 -242488276#3 550727593 -387831674 36808676 343451819#3 36274665 -23999580#0 391912494#2 178564182 -36273412#0 -69856557 551428576#0 28211355#0 -242488276#0 -356730083#0 44698172#0 23999575#1 -28019780 28211359#1 37080410 -38868126 -232962020#0 -666172888 28211359#2 666172888 -36273410 551425018 214338299#3 -4986037#0 232962020#0 26363105#1 29286207 196221073 -29286179#0 391912494#3 490291847 -178564184#0 242488276#0 387831673 -28211359#0 39827721#0 242488276#2 25197945#1 -41452102 36273411 -29286186#1 -391056741 -37080410 -242488276#1 242488283 396566181#1 4986037#2 -391912494#6 242488276#3 -208623073 -50257938#2 28211355#1 467626083#1 -680791705#1 26363105#2 -551425020 550727623 27070914 396566181#0 -551428576#1 39827719#1 39827719#0 -36777499 -391912494#4 1135393887 26363102#0 36273412#0 25816923 33696956#1 35135129 396566184#1 -35135129 -242488274 -396566183 -551428576#0 28211355#3 -242488276#2 -565005181 29286179#0 350074625 396566181#2 -27070914 -38911351#0 -26363105#3 -28211355#3 -23999575#1 -396566181#0 -490291847 -391912494#8 135637096 356730083#1 4986037#1 28019780 -467626083#1 50257938#2 -28211355#2 -36273409#0 -246870817 551428576#2 29286183 37080409 680791705#0 -28211355#1 38911351#0 -28211359#3 374847288#1 -396566181#2 28211355#2 387831674 28211359#3 36273409#1 391912494#4 -50257938#0 26363105#0 29286179#1 -36273411 -396566184#0 -25197945#1 -135637096 -29286179#1 -36808675 391912494#6 396566184#2 29882691#0 -356730083#1 -35267552 374847288#2 -680791705#0 -29286207 -33696957 214338320 -29501474 23999575#0 -175153837#0 -26363105#2 -396566184#2 391912494#8 196221041#0 234818420#0 29286186#1 -25197945#0 -550727594 36273412#1 -76203878 -391912494#5 50257938#0 4986037#0 -214338299#3 36777499 196221041#1 28211359#4 36808675 -396566184#1 -28211359#1 -343451819#3 -135637095 208623073 246870817 44698172#1 -396566181#1 -196221041#0 -4986037#1 36273409#0 396566183 76203878 391912494#5 -178564182 -29286183 -396566182 33696956#0 -26363105#0 -490291649 -550727622 175153837#1 65067441 -33696956#0 374847288#0 -343451819#2 -28211355#0 391056741 565005181 -467626084 29286181 135637095 39827721#1 -26363105#1 69856556 -29286181 550727594 -29286205 26363105#3 -387831673 38868126 242488276#1 -551428576#2 -350074625 -391912494#3 -390841675 35267552 -23999575#0 343451819#2 242488274 41452102 28211359#0 -242488283 -393224807 -28211359#4 -376270230 -28211359#2 29286186#0 29286205 29501474 23999580#0 33696957 551428576#1 396566184#0 -29286186#0"/>
    <!-- id="401693" name="Kernen im Remstal" -->
    <taz id="401693" edges="178564184#1 -178564184#1 -175153837#1 25197945#0 680791705#1 -36273412#1 -37080409 -1135393887 550727593 343451819#3 36274665 -23999580#0 178564182 -36273412#0 551428576#0 37080410 -38868126 -232962020#0 -36273410 551425018 214338299#3 232962020#0 490291847 -178564184#0 25197945#1 -41452102 36273411 -391056741 -37080410 -50257938#2 -680791705#1 -551425020 550727623 -551428576#1 1135393887 36273412#0 25816923 35135129 -35135129 -551428576#0 -565005181 -490291847 135637096 50257938#2 -36273409#0 -246870817 551428576#2 37080409 680791705#0 374847288#1 36273409#1 -50257938#0 26363105#0 -36273411 -25197945#1 -135637096 -35267552 -680791705#0 214338320 -175153837#0 234818420#0 -25197945#0 -550727594 36273412#1 -76203878 50257938#0 -214338299#3 -343451819#3 246870817 36273409#0 76203878 -178564182 -26363105#0 -490291649 -550727622 175153837#1 65067441 374847288#0 -343451819#2 391056741 565005181 550727594 38868126 -551428576#2 35267552 343451819#2 41452102 -376270230 23999580#0 551428576#1"/>
    <!-- id="16259948" name="Stetten" -->
    <taz id="16259948" edges="178564184#1 -178564184#1 -175153837#1 25197945#0 680791705#1 -36273412#1 -37080409 -1135393887 550727593 343451819#3 36274665 -23999580#0 178564182 -36273412#0 551428576#0 37080410 -38868126 -232962020#0 -36273410 551425018 214338299#3 232962020#0 490291847 -178564184#0 25197945#1 -41452102 36273411 -391056741 -37080410 -50257938#2 -680791705#1 -551425020 550727623 -551428576#1 1135393887 36273412#0 25816923 35135129 -35135129 -551428576#0 -565005181 -490291847 135637096 50257938#2 -36273409#0 -246870817 551428576#2 37080409 680791705#0 374847288#1 36273409#1 -50257938#0 26363105#0 -36273411 -25197945#1 -135637096 -35267552 -680791705#0 214338320 -175153837#0 234818420#0 -25197945#0 -550727594 36273412#1 -76203878 50257938#0 -214338299#3 -343451819#3 246870817 36273409#0 76203878 -178564182 -26363105#0 -490291649 -550727622 175153837#1 65067441 374847288#0 -343451819#2 391056741 565005181 550727594 38868126 -551428576#2 35267552 343451819#2 41452102 -376270230 23999580#0 551428576#1"/>
    <!-- id="401694" name="Weinstadt" -->
    <taz id="401694" edges="69856556 -196221073 28211355#0 196221041#0 196221073 -28211355#0 242488276#3 29501474 -242488276#3 -196221041#0 -29501474 -196221041#1 196221041#1 -69856557"/>
    <!-- id="362" name="Hafen" -->
    <taz id="362" edges="53556045#0 1197594688 109733954#1 88379105#0 -25643797 -200190588#1 -762379516 -204643950 -782371952#2 762379548#2 -548547251#0 1197594692#1 1029381427 25653592#2 1197594694#1 -91633490 323687127 -220378212#1 88289463#6 69159635 88289465#0 80822741#1 125393301#0 -88289465#1 1197594693#0 -25652401#4 -879193140 33089768#0 158510722#1 35359364#1 147965720#1 24957159 548460257 340011868#2 88289463#0 -319497290#1 115179491#1 135165720#2 361655223#0 -135271603#1 -231369403#0 -125393303#2 48310842 -24780176#0 -879193137#4 163491636#1 891187407#0 88379105#2 -25642986#0 -91632194#0 93353188#0 -48310694 -88289463#3 201788630 25652401#7 1004927216#1 548547251#1 422603723 272649264#0 48310493 -431480698#0 88379103#0 -35359364#4 569993161#1 91632197#1 253162344#0 -48314363 1197594698#1 -25642987#4 -1004927195#2 -895676260 92484258 261563291#0 548453315#1 879193139#0 -1025920232 -158518101 -24780176#2 -340330012 35359364#0 762379515#1 957244414 431480688 431444849#0 164096201#5 -703147343#0 125393298#2 91632926#0 231240512 69163155#1 25652401#4 92484252#2 -115179491#0 1004927206#1 891187407#1 -158510722#1 -762379518 48313520#0 -25642991 -437887946#3 158516549#1 -91632194#2 -91632926#0 -323686433 -88289463#4 -91632192#1 231369405 88289465#1 272813969 -125393304#1 -88289465#0 25652401#5 548453315#0 -452947498 270612770#1 548822665 -25652401#2 -243261555 762379548#4 -295849087#0 25642987#8 25642987#5 158510721#0 1055492366 -319497390#0 460514423#1 762379548#5 -109733954#1 158843071#0 -125393303#1 -96454741#1 125393298#0 -24008841#0 158510721#1 158843071#5 -220378530#1 272649249 -88379100 -762379539 -88289460#0 25642987#7 -24780176#10 88290701 -154237026#0 -25653594#0 -548822665 -437887946#0 -125393304#0 -253162343 701159756 87506017 -125393298#4 272649263#1 1004927228#1 -118961535 -344566276#2 25642987#6 782372458 314882255#0 -363039605 220011547#1 -278896618#2 319497290#0 295849087#0 431444821#7 1197594703#0 295849087#5 35101213#1 344566276#2 548626547 -158517559 35359364#3 88379106 1004927195#1 -109733954#0 -91632926#1 -701688238 1052773072#1 1197594697 -879193141#0 24780356#1 48310694 125393303#1 220378530#1 -35101213#1 -541496143 314924419#10 -25652401#6 1197594704 125393304#0 361655223#2 -48310842 781564499 48310220 48314363 -361655223#1 363039605 158517560#1 1197594694#4 257334885 48499490#1 879193138#1 -1149109865 -25642987#5 25652401#6 314881223 35101290#2 -125393301#1 158843071#11 -344566272#0 -344566273#2 272649258 91632196 678085657#0 891187408#0 1124498535#0 -701688236 879193137#4 88379105#3 158843071#9 -88289463#5 164096287 87506019 220378528 261563291#7 121774434#2 -422603725#0 25652401#8 -1197594685 -35359364#3 -404872170 -125393303#0 298056909#0 33089850 422603729 200190588#0 69163855 1197594692#0 755505220 25643797 -762379512 272813972 158843071#7 344566273#0 -48310015#0 -80822741#0 244734962#1 200190588#2 -158510721#0 701688158#2 48310015#2 762379517 -762379515#1 158843071#2 -154230482 -92484254 158517558#2 -25653594#2 431480690 35101213#2 879193138#2 93353190#1 121774434#3 91633492 319497390#0 -422603729 -220378568#0 121774434#0 344566272#2 48310670 -24780176#1 1197594696 92484254 879193137#0 -24780356#1 93353190#2 24008827#1 305893048 91632194#2 298049610 698212041#1 231366190#0 -548453315#1 -1197594683#0 -69163155#4 -344566273#1 781564500 272813974 261563291#4 -93588178#1 158518101 -115178936 48310754 -135271603#0 -25652401#3 -25642408 -548453315#0 1197594691 91632929#2 25642987#1 404872170 -200190588#4 4541157#1 244531066#0 48313473 699432742#1 -88379102 158517558#0 1124498537#0 -125393301#0 -154234474 244734962#0 -25642987#7 -344566273#0 431444821#5 405265789 569993161#2 220378530#0 -363039363 48310015#0 -1077544703 -158513383#1 237155758 35359364#2 48499490#0 762379520#1 -220378568#1 -200190588#3 -48310015#2 -1029381430 -91632192#2 88289464 -25652401#8 363039363 -1029381429#1 340187481#0 -158510722#0 -48313520#1 88289463#1 1077544703 -24780176#9 762379514#0 -24780176#8 -24780176#5 69148921#1 701688237 48310219 109733954#0 431480696 -93353196 -319497389#0 -305893048 -270554558#1 -1197594690 -879193138#0 442889782 204643950 -48310220 -548547251#1 25642987#2 -782371952#1 -35359364#2 220378568#1 1025920231 -361655223#2 25653594#2 762379515#0 158513383#1 220378531 253162343 92484257 -1029381428 -1055492367 -200297092 891187408#1 319497833#0 -782371952#3 135271603#0 -109733954#2 -816368597#1 88379100 96454741#0 -879193143 25653594#1 5782863#2 -363039364 1004927216#3 762379520#0 -231240512 -231369405 762379516 -25652401#1 10424182 -253161659 -548626547 541496139 115179423 891187405 1124498537#1 -93588178#0 261563291#1 294745926 -220378530#0 -431480702#1 -1197594692#0 1124498536 158517558#4 24780356#2 91632192#3 -272813984#1 -1193109712 -25642987#8 220378530#2 435299469 -1055492366 -125393298#3 158517558#3 -35101213#0 24780176#3 -253162344#1 231369404#1 -314881223 1197594702 344566273#2 762379512 253162344#1 1197594685 24780159#0 -340011867 -891187409 88379102 702499203#1 125393312 -545334725 -80822741#2 25653592#3 340172871 816368597#1 87506018#0 1004927206#0 -363039365 158517557#0 762379537 24957177#1 703147343#1 879193138#3 272649261 180559554#2 25642987#9 -344566276#1 135271603#2 35359364#5 319497290#1 678085657#2 88379107#1 270554558#1 686370852 69163155#2 701688158#1 48310442#1 -431480702#0 -762379519 88289458 93353291 121774434#5 -220378568#2 -147965720#0 1055492365#0 48310429 88289460#1 782371952#1 1004927229#1 158510722#0 431480698#1 -315261072 69158787 154237026#0 -24780176#4 -158510721#1 1149109865 1197594694#0 53556045#1 -201788630 -548460257 295849087#2 -91632199 -96454741#0 -319497833#0 1004927196 314882256 431480702#1 -1197594698#0 431444820 -879193138#2 -158518707#0 -295849087#8 154230473#2 319498183 -1055492365#0 -272649264#0 33089768#1 -879193142 -548822666 548547252 158517557#1 164096201#3 -24780176#6 -1004927195#0 1029381429#1 -295849087#6 -431444820 -24780159#1 231369403#1 699432742#0 154237028#9 261563291#2 -1025920233 295849427 92484252#0 762379539 782371952#2 33077436 25652401#0 24780176#4 -890000860 -344566272#1 125393298#5 -1055492365#1 431480698#0 890000860 -340187481#0 121774432#0 88289460#0 -361655223#0 91632926#1 431444849#1 154230469 1004927195#2 -1197594694#3 -96454744 -231240265 -1004927194 -35101290#1 115178936 -257334885 -295849087#5 24780176#6 270612770#0 1004927216#5 -422603723 -33089850 253161659 24780176#2 91632199 548453319 344566276#1 -686370853 253162345 25642986#1 -278896618#1 88379101 -25642987#1 1197594686 69163155#3 569993161#3 1055492367 -24780176#3 -1025840471 -363039607 272813984#1 781564501 -88379107#0 73480621#1 295849087#8 1025920232 220378212#0 -115179491#1 -548460251 1197594703#1 135165720#3 363039361 344566272#1 -891187405 762379549 -35359364#1 125393298#1 88289463#4 24957110#1 158518707#0 125393298#4 879193138#0 48310015#1 295849087#1 -1004927195#1 -1197594694#1 261563291#3 158517560#0 -220378530#2 272649253 629179870 -154230469 -88289463#6 48310660 -220378531 24780176#5 -272813984#0 272649255 879193143 -879193137#0 272649263#0 88289463#2 220378568#2 1197594689 701688236 1025920233 154230473#0 879193140 -701687773 121774432#2 272649264#1 -125393298#2 -25651383#0 -295849087#3 -319497287 1004927195#0 220378345 431444863#1 69173727 295849087#3 91632922#3 -164096287 -91632197#0 -25642989 -23062040 1197594698#0 -220378345 -25652401#7 363039365 25652401#2 91632929#0 125393303#2 -1055492365#2 -879193138#1 272813982#1 314882657#2 437887946#3 678085657#1 762379514#1 340011868#1 569987358 -295849087#4 88379103#1 -253162345 -1197594684 158843071#3 -340172871 88379105#1 -25642987#6 1197594694#3 24008841#0 -125393306#0 -25642987#2 73480621#2 -1197594700 -35359364#5 180559548 92484259 298056909#1 88379107#2 272649247#10 91632922#2 91632922#1 -92484252#1 158843071#8 91632192#0 -48310754 363039366 1197594699 35101290#1 431444821#4 91632192#1 -891187410 261563291#8 -48314314 -762379520#0 363039606 431480705#0 361655223#1 -48313520#0 -91632195 91633488 135271603#1 24780176#7 93588178#1 48313520#1 -295849087#1 340011867 -344566276#0 -69163855 88378112 169217571#1 253163565 1124498535#1 80822660 88379104 -781564499 344566276#0 33089780#0 158517558#1 -48310219 295849087#4 147965720#0 25642987#3 782371952#0 -548453319 1004927194 -25652401#5 -25653594#1 -298056909#0 -91632192#3 121774435#1 158843071#10 340011868#3 158843071#6 1052773072#0 452947496 91632195 672469012 -24011776 431444821#1 891187408#2 91632926#2 -158513383#0 -154237026#1 -879193138#3 437887946#4 1004927204#1 -92484252#0 25642987#4 244733056 431444821#6 -220378212#0 -25653592#2 101994909#1 698212041#0 891187406 762379521#1 -231369403#1 -91632197#1 91632192#2 -125393312 125393306#1 -879193139#0 319497389#0 431444821#3 686370853 -879193137#1 109733954#2 -220378528 -24780356#3 -294745926 158843071#1 -91632192#0 -25642987#3 69159081 -344566272#2 25652401#3 272813983#1 -92484257 121774435#0 272813971 88289463#5 879193137#1 1197594700 -431480698#1 261563309 93353179#1 701688238 -115179423 879193141#0 701159755 24957041#1 -1197594696 -220378337 88289463#3 158516549#0 24780176#9 -125393298#0 220378568#0 -125393306#1 -314882657#2 -125393298#1 295849087#6 278896618#2 96454744 431444821#2 -48310015#1 -244734962#1 270612769#0 -48310670 879193141#1 323686433 -295849087#2 118960134#3 24780176#1 -25643795 33089626 613717231-AddedOffRampEdge 121774434#1 261563291#6 158518707#1 315261072 -158515349#1 -25652401#0 91632922#4 125393304#1 243261555 -272649247#10 1004927204#0 220378212#1 548460251 548822666 96454741#1 -24957159 158513383#0 1004927195#3 363039364 33089780#1 154237026#1 -24780356#2 125393306#0 340187480 91633490 231369403#0 164096201#0 221500971 24008842 1193109713 -405265789 -91632929#0 1004927216#4 231240265 270612769#1 93588178#0 -125393298#5 121774434#4 -231366190#0 -24780176#7 1197594701 121774432#4 200190588#4 200297092 1197594695 344566273#1 87506021#0 -180559548 -762379517 24780176#8 319497834#0 1197594693#1 -91632929#2 154234474 1055492365#1 -404739570 5782863#0 23062018 115179491#2 35359364#4 701687773 24957177#0 220378337 -158518707#1 762379518 1055492365#2 125393301#1 891187410 101994909#2 -35359364#0 -757223684 244530981#2 1004927226#1 135165721#4 -221500971 -701159756 25642986#0 -53556045#0 278896618#1 80822741#0 -1197594694#2 125393298#3 1025840471 -755505220 -703147343#1 121774432#1 1197594690 158515349#1 24780176#10 -319497290#0 92484252#1 158843071#4 164096201#4 24780176#0 -24008827#1 -314882255#1 1165980724 91632194#0 -816368597#0 782371952#3 -244734962#0 -88290701 24780356#3 91632922#5 -253162344#0 340172876 891187409 -1197594694#0 -431480690 -272649264#1 48310442#0 91632193 25652401#1 261563291#5 705266913 1197594694#2 125393303#0 363039607 91632197#0 -1197594693#0 -781564501 319497390#1 -35101213#2 -135271245"/>
    <!-- id="Äußerer Stadtbezirk Nr. 14" name="Untertürkheim" -->
    <taz id="Äußerer Stadtbezirk Nr. 14" edges="-48310015#1 -48310015#2 48310015#2 314924420 -48310220 -314924420 -762379517 35101290#2 460514423#1 154237028#0 -1197594684 48310015#0 48310220 48310015#1 -48310015#0 -460514423#0 762379517 460514423#0"/>
    <!-- id="761" name="Wangen" -->
    <taz id="761" edges="230094517 10442531#1 -106675101#4 277838835#2 -106675107#1 118286795#2 323687127 10442531#15 548843857#1 -261563291#4 243216844#5 -205040094#9 -10442531#13 106674867#1 106674867#0 -27841365#0 13881857#1 -106675099 10442531#3 314879088#3 602155503#0 10442667#0 118286846 377781471#0 957244414 10442667#2 -69903841#0 759106470#1 231240512 -69903841#2 293897606#0 1004927206#1 198138461#0 24957103#1-AddedOnRampEdge 1055492366 -220378530#1 69903841#2 330728268#2 -324742904 330728268#0 -106675101#1 -54370111#1 377781470 -68552415#4 205040094#1 -377781471#0 -885342115 106675101#2 10442531#4 -205040094#4 -10442531#15 220378530#1 1111826345#2 1115971460#2 10442531#12 87348702 -34828512 277838836#0 -377781470 -10442531#3 -243216851#4 220378528 261563291#7 -213099860 10442531#14 54370111#0 106675101#3 -548843857#1 27841365#3 -68552415#5 54370111#2 -106675104 -92484254 -243216851#3 198138461#2 106675101#1 -220378568#0 10442531#13 92484254 602155536 -106675103 298049610 670729552 10442531#5 -330728268#1 261563291#4 106674866#0 -106675101#0 -46895948#0 602419296#0 -205040094#8 548853377 25642987#1 -106675107#0 -602155580 205040094#6 -947219393 220378530#0 -220378568#1 21137199 -10442531#9 330728268#1 -27841365#1 25642987#2 220378568#1 172027782#5 1115971459#2 220378531 885342115 92484257 106675107#1 -1055492367 10442531#2 -231240512 -25652401#1 -330728270 -261563291#9 -220378530#0 33549451 947219392#1 220378530#2 -1055492366 68552415#4 34828512 243216844#0 -261563291#5 243216844#3 106675099 106674868 -261563291#6 1111826345#0 -46895948#1 897866435 -213115694#2 213099860 54370111#1 172027782#2 1004927206#0 205040094#10 -10442531#14 1079618294 -68552415#3 1079618314#1 -548843857#0 602155503#3 -205040094#6 121774434#5 -220378568#2 -230094517 1055492365#0 -10442531#8 -69903841#1 172027782#4 46895948#1 106675101#0 261563358 -118286846 -10442531#2 -1079618315 69903841#1 602419296#1 1004927196 106674871 -106674866#0 10442531#11 -1055492365#0 -10442531#1 10442531#9 92484252#0 25652401#0 -10442531#7 -1055492365#1 261563355 548843857#2 293897606#1 -1004927194 1115971460#0 -25642987#1 10442531#10 1055492367 68552415#3 220378212#0 548849867#0 -897866435 -261563291#7 205040094#9 243216851#3 -27841365#3 -106674765 106674717 548843857#0 330728270 -10442667#2 -220378530#2 69903841#0 -54370111#0 -21137199 -220378531 -106674717 220378568#2 144068042 548849867#1 -1079618294 69173727 -205040094#2 103797177 68552415#5 -118286795#1 213115694#0 -1055492365#2 205040094#2 602155580 293897606#2 13881857#2 106674866#1 -25642987#2 1115971459#0 -106674868 -10442531#10 106674865 -92484252#1 205040094#7 106675103 -10442531#11 261563291#8 -48314314 759106472#1 68552415#7 106674765 377781471#1 -377781471#1 261563369 -68552415#6 205040094#4 243216844#4 1004927194 172027782#1 -106675101#3 106675104 -1079618314#0 -54370111#2 1004927204#1 -92484252#0 -220378212#0 122951567 330728267#1 1079618314#0 -330728268#2 -106674866#1 -220378528 -548843857#2 46895683 -106675101#2 -73457902#0 -92484257 144068754 -13881857#2 172027782#3 1079618315 172027782#6 947219393 -106674865 73454051 -220378337 -10442531#5 10442531#7 -13881857#1 220378568#0 -1079618314#1 243216851#0 243216885 27841365#1 106675107#0 261563291#6 24957103#1 -25652401#0 -10442531#4 1004927204#0 1004927195#3 865348450 -10442667#0 -168550567#0 118286795#1 221500971 -205040094#1 -205040094#11 106675105 121774432#4 68552415#6 -330728268#0 1055492365#1 106675101#4 261563291#9 27841365#0 -168550568 68552415#0 220378337 1055492365#2 -243216851#2 106674678 -221500971 -261563291#8 243216851#4 -122951568 10442531#8 277838835#0 -865348450 92484252#1 -118286795#0 -68552415#7 -10442531#12 -68552415#2 25652401#1 261563291#5 168550567#0"/>
    <!-- id="Äußerer Stadtbezirk Nr. 6" name="Hedelfingen" -->