<?xml version="1.0" encoding="UTF-8"?>

<!-- generated on 2023-12-07 10:15:56.621749 by scenarioFromOSM.py v1_19_0+0000-baa66a0f364
<configuration>
    <parking-areas value="osm_complete_parking_areas.add.xml"/>
    <sumo-net value="osm.net.xml"/>
    <max-distance-alternatives value="1000.0"/>
    <min-capacity-visibility-true value="50"/>
    <max-distance-visibility-true value="1000.0"/>
    <output value="osm_parking_rerouters.add.xml"/>
    <tqdm value="True"/>
</configuration>
-->

<additional xmlns:xsi="http://www.w3.org/2001/XMLSchema-instance" xsi:noNamespaceSchemaLocation="http://sumo.dlr.de/xsd/additional_file.xsd">

    <rerouter id="-101742272#0" edges="-101742272#0">
        <interval begin="0.0" end="86400">
            <!-- in order of distance --> 
            <parkingAreaReroute id="-101742272#0" visible="true"/> <!-- dist: 0.0 -->
            <parkingAreaReroute id="101742272#0" visible="true"/> <!-- dist: 14.7 -->
            <parkingAreaReroute id="101742272#1" visible="true"/> <!-- dist: 165.4 -->
            <parkingAreaReroute id="-101742272#1" visible="true"/> <!-- dist: 342.0 -->
            <parkingAreaReroute id="101742272#4" visible="true"/> <!-- dist: 359.2 -->
            <parkingAreaReroute id="-101742272#4" visible="true"/> <!-- dist: 428.6 -->
            <parkingAreaReroute id="648572118#0" visible="true"/> <!-- dist: 443.3 -->
            <parkingAreaReroute id="9747032013" visible="true"/> <!-- dist: 455.7 -->
            <parkingAreaReroute id="-648572118#0" visible="true"/> <!-- dist: 528.6 -->
            <parkingAreaReroute id="2770909600" visible="true"/> <!-- dist: 586.4 -->
            <parkingAreaReroute id="2770909589" visible="true"/> <!-- dist: 602.3 -->
        </interval>
    </rerouter>

    <rerouter id="-101742272#1" edges="-101742272#1">
        <interval begin="0.0" end="86400">
            <!-- in order of distance --> 
            <parkingAreaReroute id="-101742272#1" visible="true"/> <!-- dist: 0.0 -->
            <parkingAreaReroute id="-101742272#0" visible="true"/> <!-- dist: 10.3 -->
            <parkingAreaReroute id="101742272#1" visible="true"/> <!-- dist: 12.2 -->
            <parkingAreaReroute id="101742272#0" visible="true"/> <!-- dist: 165.2 -->
            <parkingAreaReroute id="101742272#4" visible="true"/> <!-- dist: 206.1 -->
            <parkingAreaReroute id="-101742272#4" visible="true"/> <!-- dist: 275.4 -->
            <parkingAreaReroute id="648572118#0" visible="true"/> <!-- dist: 290.2 -->
            <parkingAreaReroute id="9747032013" visible="true"/> <!-- dist: 302.6 -->
            <parkingAreaReroute id="-648572118#0" visible="true"/> <!-- dist: 375.5 -->
            <parkingAreaReroute id="2770909600" visible="true"/> <!-- dist: 433.2 -->
            <parkingAreaReroute id="2770909589" visible="true"/> <!-- dist: 449.2 -->
        </interval>
    </rerouter>

    <rerouter id="-101742272#4" edges="-101742272#4">
        <interval begin="0.0" end="86400">
            <!-- in order of distance --> 
            <parkingAreaReroute id="-101742272#4" visible="true"/> <!-- dist: 0.0 -->
            <parkingAreaReroute id="101742272#4" visible="true"/> <!-- dist: 21.7 -->
            <parkingAreaReroute id="-101742272#1" visible="true"/> <!-- dist: 29.4 -->
            <parkingAreaReroute id="648572118#0" visible="true"/> <!-- dist: 105.8 -->
            <parkingAreaReroute id="9747032013" visible="true"/> <!-- dist: 118.2 -->
            <parkingAreaReroute id="-648572118#0" visible="true"/> <!-- dist: 191.1 -->
            <parkingAreaReroute id="-101742272#0" visible="true"/> <!-- dist: 204.2 -->
            <parkingAreaReroute id="101742272#1" visible="true"/> <!-- dist: 206.2 -->
            <parkingAreaReroute id="2770909600" visible="true"/> <!-- dist: 248.8 -->
            <parkingAreaReroute id="2770909589" visible="true"/> <!-- dist: 264.8 -->
            <parkingAreaReroute id="2770909596" visible="true"/> <!-- dist: 302.7 -->
        </interval>
    </rerouter>

    <rerouter id="-10230452#1" edges="-10230452#1">
        <interval begin="0.0" end="86400">
            <!-- in order of distance --> 
            <parkingAreaReroute id="-10230452#1" visible="true"/> <!-- dist: 0.0 -->
            <parkingAreaReroute id="10230452#1" visible="true"/> <!-- dist: 38.3 -->
            <parkingAreaReroute id="10230452#2" visible="true"/> <!-- dist: 107.9 -->
            <parkingAreaReroute id="10230452#3" visible="true"/> <!-- dist: 177.5 -->
            <parkingAreaReroute id="-40817206#7" visible="true"/> <!-- dist: 196.1 -->
            <parkingAreaReroute id="-10230452#2" visible="true"/> <!-- dist: 197.7 -->
            <parkingAreaReroute id="40817206#7" visible="true"/> <!-- dist: 213.8 -->
            <parkingAreaReroute id="40817206#5" visible="true"/> <!-- dist: 224.2 -->
            <parkingAreaReroute id="-40817206#5" visible="true"/> <!-- dist: 227.2 -->
            <parkingAreaReroute id="-40817206#3" visible="true"/> <!-- dist: 238.2 -->
            <parkingAreaReroute id="10230452#4" visible="true"/> <!-- dist: 259.4 -->
        </interval>
    </rerouter>

    <rerouter id="-10230452#2" edges="-10230452#2">
        <interval begin="0.0" end="86400">
            <!-- in order of distance --> 
            <parkingAreaReroute id="-10230452#2" visible="true"/> <!-- dist: 0.0 -->
            <parkingAreaReroute id="-10230452#1" visible="true"/> <!-- dist: 17.2 -->
            <parkingAreaReroute id="10230452#2" visible="true"/> <!-- dist: 35.9 -->
            <parkingAreaReroute id="10230452#1" visible="true"/> <!-- dist: 102.0 -->
            <parkingAreaReroute id="10230452#3" visible="true"/> <!-- dist: 105.4 -->
            <parkingAreaReroute id="40817206#5" visible="true"/> <!-- dist: 148.5 -->
            <parkingAreaReroute id="-40817206#3" visible="true"/> <!-- dist: 162.4 -->
            <parkingAreaReroute id="10230452#4" visible="true"/> <!-- dist: 187.3 -->
            <parkingAreaReroute id="40817206#7" visible="true"/> <!-- dist: 203.2 -->
            <parkingAreaReroute id="-10230452#3" visible="true"/> <!-- dist: 203.6 -->
            <parkingAreaReroute id="40817206#3" visible="true"/> <!-- dist: 215.0 -->
        </interval>
    </rerouter>

    <rerouter id="-10230452#3" edges="-10230452#3">
        <interval begin="0.0" end="86400">
            <!-- in order of distance --> 
            <parkingAreaReroute id="-10230452#3" visible="true"/> <!-- dist: 0.0 -->
            <parkingAreaReroute id="-10230452#2" visible="true"/> <!-- dist: 23.8 -->
            <parkingAreaReroute id="10230452#3" visible="true"/> <!-- dist: 44.0 -->
            <parkingAreaReroute id="-10230452#1" visible="true"/> <!-- dist: 86.0 -->
            <parkingAreaReroute id="10230452#2" visible="true"/> <!-- dist: 104.7 -->
            <parkingAreaReroute id="10230452#4" visible="true"/> <!-- dist: 125.9 -->
            <parkingAreaReroute id="40817206#3" visible="true"/> <!-- dist: 145.1 -->
            <parkingAreaReroute id="-40817206#2" visible="true"/> <!-- dist: 155.9 -->
            <parkingAreaReroute id="10230452#1" visible="true"/> <!-- dist: 170.8 -->
            <parkingAreaReroute id="4811453#4" visible="true"/> <!-- dist: 191.3 -->
            <parkingAreaReroute id="10230452#5" visible="true"/> <!-- dist: 205.2 -->
        </interval>
    </rerouter>

    <rerouter id="-10230452#4" edges="-10230452#4">
        <interval begin="0.0" end="86400">
            <!-- in order of distance --> 
            <parkingAreaReroute id="-10230452#4" visible="true"/> <!-- dist: 0.0 -->
            <parkingAreaReroute id="-10230452#3" visible="true"/> <!-- dist: 19.9 -->
            <parkingAreaReroute id="10230452#4" visible="true"/> <!-- dist: 33.2 -->
            <parkingAreaReroute id="4811453#4" visible="true"/> <!-- dist: 98.6 -->
            <parkingAreaReroute id="-10230452#2" visible="true"/> <!-- dist: 108.5 -->
            <parkingAreaReroute id="10230452#5" visible="true"/> <!-- dist: 112.5 -->
            <parkingAreaReroute id="-4811453#3" visible="true"/> <!-- dist: 112.7 -->
            <parkingAreaReroute id="10230452#3" visible="true"/> <!-- dist: 128.7 -->
            <parkingAreaReroute id="4811453#5" visible="true"/> <!-- dist: 168.3 -->
            <parkingAreaReroute id="4811453#3" visible="true"/> <!-- dist: 168.4 -->
            <parkingAreaReroute id="-10230452#1" visible="true"/> <!-- dist: 170.7 -->
        </interval>
    </rerouter>

    <rerouter id="-10230452#5" edges="-10230452#5">
        <interval begin="0.0" end="86400">
            <!-- in order of distance --> 
            <parkingAreaReroute id="-10230452#5" visible="true"/> <!-- dist: 0.0 -->
            <parkingAreaReroute id="-4811453#3" visible="true"/> <!-- dist: 13.4 -->
            <parkingAreaReroute id="4811453#4" visible="true"/> <!-- dist: 27.3 -->
            <parkingAreaReroute id="-10230452#4" visible="true"/> <!-- dist: 27.5 -->
            <parkingAreaReroute id="10230452#5" visible="true"/> <!-- dist: 51.2 -->
            <parkingAreaReroute id="-4811453#2" visible="true"/> <!-- dist: 76.0 -->
            <parkingAreaReroute id="4811453#3" visible="true"/> <!-- dist: 92.5 -->
            <parkingAreaReroute id="4811453#5" visible="true"/> <!-- dist: 97.0 -->
            <parkingAreaReroute id="-10230452#3" visible="true"/> <!-- dist: 99.5 -->
            <parkingAreaReroute id="10230452#4" visible="true"/> <!-- dist: 112.8 -->
            <parkingAreaReroute id="-4811453#1" visible="true"/> <!-- dist: 115.5 -->
        </interval>
    </rerouter>

    <rerouter id="-1103107085" edges="-1103107085">
        <interval begin="0.0" end="86400">
            <!-- in order of distance --> 
            <parkingAreaReroute id="-1103107085" visible="true"/> <!-- dist: 0.0 -->
            <parkingAreaReroute id="26249179" visible="true"/> <!-- dist: 152.2 -->
            <parkingAreaReroute id="1103106604#1" visible="true"/> <!-- dist: 180.7 -->
            <parkingAreaReroute id="-4811453#7" visible="true"/> <!-- dist: 232.4 -->
            <parkingAreaReroute id="1103107085" visible="true"/> <!-- dist: 259.5 -->
            <parkingAreaReroute id="-40817206#0" visible="true"/> <!-- dist: 267.1 -->
            <parkingAreaReroute id="40817206#1" visible="true"/> <!-- dist: 275.5 -->
            <parkingAreaReroute id="40817206#0" visible="true"/> <!-- dist: 307.2 -->
            <parkingAreaReroute id="446708330" visible="true"/> <!-- dist: 314.2 -->
            <parkingAreaReroute id="4811453#7" visible="true"/> <!-- dist: 340.7 -->
            <parkingAreaReroute id="1103106740#2" visible="true"/> <!-- dist: 342.1 -->
        </interval>
    </rerouter>

    <rerouter id="-146651697#0" edges="-146651697#0">
        <interval begin="0.0" end="86400">
            <!-- in order of distance --> 
            <parkingAreaReroute id="-146651697#0" visible="true"/> <!-- dist: 0.0 -->
            <parkingAreaReroute id="720595645" visible="true"/> <!-- dist: 45.0 -->
            <parkingAreaReroute id="418702459" visible="true"/> <!-- dist: 51.6 -->
            <parkingAreaReroute id="755934750#2" visible="true"/> <!-- dist: 63.9 -->
            <parkingAreaReroute id="755934751#0" visible="true"/> <!-- dist: 79.8 -->
            <parkingAreaReroute id="755934750#1" visible="true"/> <!-- dist: 112.5 -->
            <parkingAreaReroute id="418704735" visible="true"/> <!-- dist: 119.6 -->
            <parkingAreaReroute id="27607365#2" visible="true"/> <!-- dist: 120.9 -->
            <parkingAreaReroute id="569635661" visible="true"/> <!-- dist: 163.8 -->
            <parkingAreaReroute id="-146651697#1" visible="true"/> <!-- dist: 226.5 -->
            <parkingAreaReroute id="-146651697#2" visible="true"/> <!-- dist: 271.6 -->
        </interval>
    </rerouter>

    <rerouter id="-146651697#1" edges="-146651697#1">
        <interval begin="0.0" end="86400">
            <!-- in order of distance --> 
            <parkingAreaReroute id="-146651697#1" visible="true"/> <!-- dist: 0.0 -->
            <parkingAreaReroute id="-146651697#0" visible="true"/> <!-- dist: 13.5 -->
            <parkingAreaReroute id="720595645" visible="true"/> <!-- dist: 77.4 -->
            <parkingAreaReroute id="418702459" visible="true"/> <!-- dist: 84.0 -->
            <parkingAreaReroute id="755934750#2" visible="true"/> <!-- dist: 96.3 -->
            <parkingAreaReroute id="755934751#0" visible="true"/> <!-- dist: 112.2 -->
            <parkingAreaReroute id="755934750#1" visible="true"/> <!-- dist: 144.9 -->
            <parkingAreaReroute id="418704735" visible="true"/> <!-- dist: 152.0 -->
            <parkingAreaReroute id="27607365#2" visible="true"/> <!-- dist: 153.3 -->
            <parkingAreaReroute id="569635661" visible="true"/> <!-- dist: 196.2 -->
            <parkingAreaReroute id="-146651697#2" visible="true"/> <!-- dist: 303.9 -->
        </interval>
    </rerouter>

    <rerouter id="-146651697#2" edges="-146651697#2">
        <interval begin="0.0" end="86400">
            <!-- in order of distance --> 
            <parkingAreaReroute id="-146651697#2" visible="true"/> <!-- dist: 0.0 -->
            <parkingAreaReroute id="720597355" visible="true"/> <!-- dist: -15.0 -->
            <parkingAreaReroute id="-146651697#1" visible="true"/> <!-- dist: 23.0 -->
            <parkingAreaReroute id="-146651697#0" visible="true"/> <!-- dist: 154.1 -->
            <parkingAreaReroute id="720595645" visible="true"/> <!-- dist: 218.0 -->
            <parkingAreaReroute id="418702459" visible="true"/> <!-- dist: 224.5 -->
            <parkingAreaReroute id="755934750#2" visible="true"/> <!-- dist: 236.8 -->
            <parkingAreaReroute id="-25141241#1" visible="true"/> <!-- dist: 248.9 -->
            <parkingAreaReroute id="755934751#0" visible="true"/> <!-- dist: 252.7 -->
            <parkingAreaReroute id="25141241#0" visible="true"/> <!-- dist: 254.3 -->
            <parkingAreaReroute id="755934750#1" visible="true"/> <!-- dist: 285.4 -->
        </interval>
    </rerouter>

    <rerouter id="-148497084#1" edges="-148497084#1">
        <interval begin="0.0" end="86400">
            <!-- in order of distance --> 
            <parkingAreaReroute id="-148497084#1" visible="true"/> <!-- dist: 0.0 -->
            <parkingAreaReroute id="2058242791" visible="true"/> <!-- dist: -16.0 -->
            <parkingAreaReroute id="25141241#0" visible="true"/> <!-- dist: 87.6 -->
            <parkingAreaReroute id="148497084#1" visible="true"/> <!-- dist: 96.4 -->
            <parkingAreaReroute id="-25141241#0" visible="true"/> <!-- dist: 147.3 -->
            <parkingAreaReroute id="25141241#1" visible="true"/> <!-- dist: 147.3 -->
            <parkingAreaReroute id="7099760032" visible="true"/> <!-- dist: 182.7 -->
            <parkingAreaReroute id="-25141241#1" visible="true"/> <!-- dist: 231.7 -->
            <parkingAreaReroute id="-146651697#2" visible="true"/> <!-- dist: 233.2 -->
            <parkingAreaReroute id="720597355" visible="true"/> <!-- dist: 243.9 -->
            <parkingAreaReroute id="1811020360" visible="true"/> <!-- dist: 281.3 -->
        </interval>
    </rerouter>

    <rerouter id="-154230466#0" edges="-154230466#0">
        <interval begin="0.0" end="86400">
            <!-- in order of distance --> 
            <parkingAreaReroute id="-154230466#0" visible="true"/> <!-- dist: 0.0 -->
            <parkingAreaReroute id="-570449182#1" visible="true"/> <!-- dist: 16.2 -->
            <parkingAreaReroute id="-570449182#0" visible="true"/> <!-- dist: 59.1 -->
            <parkingAreaReroute id="154230466#0" visible="true"/> <!-- dist: 154.4 -->
            <parkingAreaReroute id="-570449183#1" visible="true"/> <!-- dist: 217.5 -->
            <parkingAreaReroute id="154230466#1" visible="true"/> <!-- dist: 266.2 -->
            <parkingAreaReroute id="-570449183#0" visible="true"/> <!-- dist: 282.5 -->
            <parkingAreaReroute id="570449183#1" visible="true"/> <!-- dist: 295.5 -->
            <parkingAreaReroute id="154230466#3" visible="true"/> <!-- dist: 320.7 -->
            <parkingAreaReroute id="154230466#4" visible="true"/> <!-- dist: 350.0 -->
            <parkingAreaReroute id="-154230466#1" visible="true"/> <!-- dist: 351.6 -->
        </interval>
    </rerouter>

    <rerouter id="-154230466#1" edges="-154230466#1">
        <interval begin="0.0" end="86400">
            <!-- in order of distance --> 
            <parkingAreaReroute id="-154230466#1" visible="true"/> <!-- dist: 0.0 -->
            <parkingAreaReroute id="-154230466#0" visible="true"/> <!-- dist: 15.6 -->
            <parkingAreaReroute id="154230466#1" visible="true"/> <!-- dist: 27.4 -->
            <parkingAreaReroute id="154230466#3" visible="true"/> <!-- dist: 81.9 -->
            <parkingAreaReroute id="-570449182#1" visible="true"/> <!-- dist: 132.6 -->
            <parkingAreaReroute id="154230466#4" visible="true"/> <!-- dist: 141.1 -->
            <parkingAreaReroute id="-570449182#0" visible="true"/> <!-- dist: 175.5 -->
            <parkingAreaReroute id="570455526#0" visible="true"/> <!-- dist: 198.0 -->
            <parkingAreaReroute id="570455526#1" visible="true"/> <!-- dist: 236.2 -->
            <parkingAreaReroute id="154230466#0" visible="true"/> <!-- dist: 270.8 -->
            <parkingAreaReroute id="-570449183#1" visible="true"/> <!-- dist: 333.9 -->
        </interval>
    </rerouter>

    <rerouter id="-154230466#3" edges="-154230466#3">
        <interval begin="0.0" end="86400">
            <!-- in order of distance --> 
            <parkingAreaReroute id="-154230466#3" visible="true"/> <!-- dist: 0.0 -->
            <parkingAreaReroute id="-154230466#1" visible="true"/> <!-- dist: 34.6 -->
            <parkingAreaReroute id="154230466#3" visible="true"/> <!-- dist: 38.0 -->
            <parkingAreaReroute id="-154230466#0" visible="true"/> <!-- dist: 75.2 -->
            <parkingAreaReroute id="154230466#1" visible="true"/> <!-- dist: 87.0 -->
            <parkingAreaReroute id="154230466#4" visible="true"/> <!-- dist: 97.2 -->
            <parkingAreaReroute id="570455526#0" visible="true"/> <!-- dist: 154.1 -->
            <parkingAreaReroute id="-570449182#1" visible="true"/> <!-- dist: 192.2 -->
            <parkingAreaReroute id="570455526#1" visible="true"/> <!-- dist: 192.2 -->
            <parkingAreaReroute id="-570449182#0" visible="true"/> <!-- dist: 235.1 -->
            <parkingAreaReroute id="154230466#0" visible="true"/> <!-- dist: 290.8 -->
        </interval>
    </rerouter>

    <rerouter id="-154230466#4" edges="-154230466#4">
        <interval begin="0.0" end="86400">
            <!-- in order of distance --> 
            <parkingAreaReroute id="-154230466#4" visible="true"/> <!-- dist: 0.0 -->
            <parkingAreaReroute id="-154230466#3" visible="true"/> <!-- dist: 13.7 -->
            <parkingAreaReroute id="154230466#4" visible="true"/> <!-- dist: 24.1 -->
            <parkingAreaReroute id="570455526#0" visible="true"/> <!-- dist: 81.0 -->
            <parkingAreaReroute id="-154230466#1" visible="true"/> <!-- dist: 93.5 -->
            <parkingAreaReroute id="154230466#3" visible="true"/> <!-- dist: 96.9 -->
            <parkingAreaReroute id="570455526#1" visible="true"/> <!-- dist: 119.1 -->
            <parkingAreaReroute id="-154230466#0" visible="true"/> <!-- dist: 134.1 -->
            <parkingAreaReroute id="154230466#1" visible="true"/> <!-- dist: 145.9 -->
            <parkingAreaReroute id="570081633" visible="true"/> <!-- dist: 232.3 -->
            <parkingAreaReroute id="-570449182#1" visible="true"/> <!-- dist: 251.1 -->
        </interval>
    </rerouter>

    <rerouter id="-158513383#0" edges="-158513383#0">
        <interval begin="0.0" end="86400">
            <!-- in order of distance --> 
            <parkingAreaReroute id="-158513383#0" visible="true"/> <!-- dist: 0.0 -->
            <parkingAreaReroute id="158513383#0" visible="true"/> <!-- dist: 13.2 -->
            <parkingAreaReroute id="158513383#1" visible="true"/> <!-- dist: 49.1 -->
            <parkingAreaReroute id="-158513383#1" visible="true"/> <!-- dist: 105.4 -->
            <parkingAreaReroute id="-548460257" visible="true"/> <!-- dist: 204.9 -->
            <parkingAreaReroute id="158515349#1" visible="true"/> <!-- dist: 273.9 -->
            <parkingAreaReroute id="2291332996" visible="true"/> <!-- dist: 297.5 -->
            <parkingAreaReroute id="2291333004" visible="true"/> <!-- dist: 297.5 -->
            <parkingAreaReroute id="6589769240" visible="true"/> <!-- dist: 325.0 -->
            <parkingAreaReroute id="200297092" visible="true"/> <!-- dist: 404.0 -->
            <parkingAreaReroute id="548462796" visible="true"/> <!-- dist: 458.9 -->
        </interval>
    </rerouter>

    <rerouter id="-158513383#1" edges="-158513383#1">
        <interval begin="0.0" end="86400">
            <!-- in order of distance --> 
            <parkingAreaReroute id="-158513383#1" visible="true"/> <!-- dist: 0.0 -->
            <parkingAreaReroute id="-158513383#0" visible="true"/> <!-- dist: 16.9 -->
            <parkingAreaReroute id="158513383#1" visible="true"/> <!-- dist: 16.9 -->
            <parkingAreaReroute id="158513383#0" visible="true"/> <!-- dist: 49.1 -->
            <parkingAreaReroute id="-548460257" visible="true"/> <!-- dist: 172.7 -->
            <parkingAreaReroute id="158515349#1" visible="true"/> <!-- dist: 309.8 -->
            <parkingAreaReroute id="2291332996" visible="true"/> <!-- dist: 333.4 -->
            <parkingAreaReroute id="2291333004" visible="true"/> <!-- dist: 333.4 -->
            <parkingAreaReroute id="6589769240" visible="true"/> <!-- dist: 360.9 -->
            <parkingAreaReroute id="200297092" visible="true"/> <!-- dist: 371.7 -->
            <parkingAreaReroute id="548462796" visible="true"/> <!-- dist: 426.7 -->
        </interval>
    </rerouter>

    <rerouter id="-161583671" edges="-161583671">
        <interval begin="0.0" end="86400">
            <!-- in order of distance --> 
            <parkingAreaReroute id="-161583671" visible="true"/> <!-- dist: 0.0 -->
            <parkingAreaReroute id="-21137198#1" visible="true"/> <!-- dist: 31.7 -->
            <parkingAreaReroute id="-21137198#0" visible="true"/> <!-- dist: 89.3 -->
            <parkingAreaReroute id="-569642543" visible="true"/> <!-- dist: 217.7 -->
            <parkingAreaReroute id="569642543" visible="true"/> <!-- dist: 308.0 -->
            <parkingAreaReroute id="23534636#2" visible="true"/> <!-- dist: 328.2 -->
            <parkingAreaReroute id="-25141241#1" visible="true"/> <!-- dist: 339.7 -->
            <parkingAreaReroute id="1597821275" visible="true"/> <!-- dist: 353.9 -->
            <parkingAreaReroute id="-25141241#0" visible="true"/> <!-- dist: 418.5 -->
            <parkingAreaReroute id="25141241#1" visible="true"/> <!-- dist: 418.5 -->
            <parkingAreaReroute id="1811020360" visible="true"/> <!-- dist: 420.2 -->
        </interval>
    </rerouter>

    <rerouter id="-163494332" edges="-163494332">
        <interval begin="0.0" end="86400">
            <!-- in order of distance --> 
            <parkingAreaReroute id="-163494332" visible="true"/> <!-- dist: 0.0 -->
            <parkingAreaReroute id="154230466#0" visible="true"/> <!-- dist: 118.2 -->
            <parkingAreaReroute id="-570449182#1" visible="true"/> <!-- dist: 126.0 -->
            <parkingAreaReroute id="-570449182#0" visible="true"/> <!-- dist: 168.8 -->
            <parkingAreaReroute id="154230466#1" visible="true"/> <!-- dist: 229.9 -->
            <parkingAreaReroute id="154230466#4" visible="true"/> <!-- dist: 267.7 -->
            <parkingAreaReroute id="154230466#3" visible="true"/> <!-- dist: 284.4 -->
            <parkingAreaReroute id="-154230466#1" visible="true"/> <!-- dist: 315.4 -->
            <parkingAreaReroute id="570455526#0" visible="true"/> <!-- dist: 324.5 -->
            <parkingAreaReroute id="-570449183#1" visible="true"/> <!-- dist: 327.3 -->
            <parkingAreaReroute id="-154230466#0" visible="true"/> <!-- dist: 356.1 -->
        </interval>
    </rerouter>

    <rerouter id="-21137198#0" edges="-21137198#0">
        <interval begin="0.0" end="86400">
            <!-- in order of distance --> 
            <parkingAreaReroute id="-21137198#0" visible="true"/> <!-- dist: 0.0 -->
            <parkingAreaReroute id="-21137198#1" visible="true"/> <!-- dist: 404.0 -->
            <parkingAreaReroute id="-161583671" visible="true"/> <!-- dist: 545.9 -->
            <parkingAreaReroute id="-569642543" visible="true"/> <!-- dist: 561.8 -->
            <parkingAreaReroute id="569642543" visible="true"/> <!-- dist: 652.1 -->
            <parkingAreaReroute id="23534636#2" visible="true"/> <!-- dist: 672.3 -->
            <parkingAreaReroute id="-25141241#1" visible="true"/> <!-- dist: 683.8 -->
            <parkingAreaReroute id="1597821275" visible="true"/> <!-- dist: 698.0 -->
            <parkingAreaReroute id="-25141241#0" visible="true"/> <!-- dist: 762.6 -->
            <parkingAreaReroute id="25141241#1" visible="true"/> <!-- dist: 762.6 -->
            <parkingAreaReroute id="1811020360" visible="true"/> <!-- dist: 764.3 -->
        </interval>
    </rerouter>

    <rerouter id="-21137198#1" edges="-21137198#1">
        <interval begin="0.0" end="86400">
            <!-- in order of distance --> 
            <parkingAreaReroute id="-21137198#1" visible="true"/> <!-- dist: 0.0 -->
            <parkingAreaReroute id="-21137198#0" visible="true"/> <!-- dist: 17.4 -->
            <parkingAreaReroute id="-161583671" visible="true"/> <!-- dist: 844.5 -->
            <parkingAreaReroute id="-569642543" visible="true"/> <!-- dist: 860.3 -->
            <parkingAreaReroute id="569642543" visible="true"/> <!-- dist: 950.6 -->
            <parkingAreaReroute id="23534636#2" visible="true"/> <!-- dist: 970.8 -->
            <parkingAreaReroute id="-25141241#1" visible="true"/> <!-- dist: 982.3 -->
            <parkingAreaReroute id="1597821275" visible="true"/> <!-- dist: 996.5 -->
        </interval>
    </rerouter>

    <rerouter id="-23111552#0" edges="-23111552#0">
        <interval begin="0.0" end="86400">
            <!-- in order of distance --> 
            <parkingAreaReroute id="-23111552#0" visible="true"/> <!-- dist: 0.0 -->
            <parkingAreaReroute id="-23111552#3" visible="true"/> <!-- dist: 215.2 -->
            <parkingAreaReroute id="-23111552#2" visible="true"/> <!-- dist: 241.1 -->
            <parkingAreaReroute id="-23111552#1" visible="true"/> <!-- dist: 266.5 -->
            <parkingAreaReroute id="1197329847" visible="true"/> <!-- dist: 479.8 -->
            <parkingAreaReroute id="1786518008" visible="true"/> <!-- dist: 570.4 -->
            <parkingAreaReroute id="2262615184" visible="true"/> <!-- dist: 619.5 -->
            <parkingAreaReroute id="246117375" visible="true"/> <!-- dist: 632.6 -->
            <parkingAreaReroute id="1786518014" visible="true"/> <!-- dist: 638.3 -->
        </interval>
    </rerouter>

    <rerouter id="-23111552#1" edges="-23111552#1">
        <interval begin="0.0" end="86400">
            <!-- in order of distance --> 
            <parkingAreaReroute id="-23111552#1" visible="true"/> <!-- dist: 0.0 -->
            <parkingAreaReroute id="-23111552#0" visible="true"/> <!-- dist: 13.5 -->
            <parkingAreaReroute id="-23111552#3" visible="true"/> <!-- dist: 156.7 -->
            <parkingAreaReroute id="-23111552#2" visible="true"/> <!-- dist: 182.6 -->
            <parkingAreaReroute id="1786518008" visible="true"/> <!-- dist: 511.9 -->
            <parkingAreaReroute id="1197329847" visible="true"/> <!-- dist: 512.9 -->
            <parkingAreaReroute id="2262615184" visible="true"/> <!-- dist: 652.6 -->
            <parkingAreaReroute id="246117375" visible="true"/> <!-- dist: 665.6 -->
            <parkingAreaReroute id="1786518014" visible="true"/> <!-- dist: 671.4 -->
        </interval>
    </rerouter>

    <rerouter id="-23111552#2" edges="-23111552#2">
        <interval begin="0.0" end="86400">
            <!-- in order of distance --> 
            <parkingAreaReroute id="-23111552#2" visible="true"/> <!-- dist: 0.0 -->
            <parkingAreaReroute id="-23111552#1" visible="true"/> <!-- dist: 13.5 -->
            <parkingAreaReroute id="-23111552#0" visible="true"/> <!-- dist: 37.7 -->
            <parkingAreaReroute id="-23111552#3" visible="true"/> <!-- dist: 132.3 -->
            <parkingAreaReroute id="1786518008" visible="true"/> <!-- dist: 487.5 -->
            <parkingAreaReroute id="1197329847" visible="true"/> <!-- dist: 537.1 -->
            <parkingAreaReroute id="2262615184" visible="true"/> <!-- dist: 676.8 -->
            <parkingAreaReroute id="246117375" visible="true"/> <!-- dist: 689.8 -->
            <parkingAreaReroute id="1786518014" visible="true"/> <!-- dist: 695.6 -->
        </interval>
    </rerouter>

    <rerouter id="-23111552#3" edges="-23111552#3">
        <interval begin="0.0" end="86400">
            <!-- in order of distance --> 
            <parkingAreaReroute id="-23111552#3" visible="true"/> <!-- dist: 0.0 -->
            <parkingAreaReroute id="-23111552#2" visible="true"/> <!-- dist: 13.5 -->
            <parkingAreaReroute id="-23111552#1" visible="true"/> <!-- dist: 38.9 -->
            <parkingAreaReroute id="-23111552#0" visible="true"/> <!-- dist: 63.1 -->
            <parkingAreaReroute id="1786518008" visible="true"/> <!-- dist: 462.8 -->
            <parkingAreaReroute id="1197329847" visible="true"/> <!-- dist: 562.5 -->
            <parkingAreaReroute id="2262615184" visible="true"/> <!-- dist: 702.2 -->
            <parkingAreaReroute id="246117375" visible="true"/> <!-- dist: 715.2 -->