<?xml version="1.0" encoding="UTF-8"?>

<!-- generated on 2023-12-07 10:14:11 by Eclipse SUMO netconvert Version 1.19.0
<configuration xmlns:xsi="http://www.w3.org/2001/XMLSchema-instance" xsi:noNamespaceSchemaLocation="http://sumo.dlr.de/xsd/netconvertConfiguration.xsd">

    <input>
        <type-files value="C:\Program Files (x86)\Eclipse\Sumo/data/typemap/osmNetconvert.typ.xml,C:\Program Files (x86)\Eclipse\Sumo/data/typemap/osmNetconvertBicycle.typ.xml,C:\Program Files (x86)\Eclipse\Sumo/data/typemap/osmNetconvertPedestrians.typ.xml"/>
        <osm-files value="esslingen.osm"/>
    </input>

    <output>
        <output-file value="osm.net.xml"/>
        <output.street-names value="true"/>
        <output.original-names value="true"/>
        <ptstop-output value="osm_stops.add.xml"/>
        <ptline-output value="osm_ptlines.xml"/>
        <parking-output value="osm_parking.xml"/>
    </output>

    <projection>
        <proj.utm value="true"/>
    </projection>

    <processing>
        <geometry.remove value="true"/>
        <roundabouts.guess value="true"/>
    </processing>

    <tls_building>
        <tls.discard-simple value="true"/>
        <tls.join value="true"/>
        <tls.guess-signals value="true"/>
        <tls.default-type value="actuated"/>
    </tls_building>

    <ramp_guessing>
        <ramps.guess value="true"/>
    </ramp_guessing>

    <edge_removal>
        <keep-edges.components value="1"/>
        <remove-edges.isolated value="true"/>
    </edge_removal>

    <junctions>
        <no-internal-links value="false"/>
        <no-turnarounds value="false"/>
        <no-turnarounds.tls value="false"/>
        <no-turnarounds.geometry value="true"/>
        <no-turnarounds.except-deadend value="true"/>
        <no-turnarounds.except-turnlane value="false"/>
        <no-turnarounds.fringe value="true"/>
        <junctions.join value="true"/>
        <junctions.join-dist value="10"/>
        <junctions.join-same value="true"/>
        <junctions.corner-detail value="5"/>
        <junctions.internal-link-detail value="5"/>
        <check-lane-foes.roundabout value="true"/>
    </junctions>

    <pedestrian>
        <sidewalks.guess value="false"/>
        <sidewalks.guess.max-speed value="13.89"/>
        <sidewalks.guess.min-speed value="5.8"/>
        <sidewalks.guess.from-permissions value="false"/>
        <crossings.guess value="true"/>
        <crossings.guess.speed-threshold value="13.89"/>
        <walkingareas value="false"/>
        <walkingareas.join-dist value="15"/>
    </pedestrian>

    <bicycle>
        <bikelanes.guess value="false"/>
        <bikelanes.guess.max-speed value="22.22"/>
        <bikelanes.guess.min-speed value="5.8"/>
        <bikelanes.guess.from-permissions value="false"/>
    </bicycle>

    <railway>
        <railway.signals.discard value="false"/>
        <railway.topology.repair value="true"/>
        <railway.topology.repair.connect-straight value="true"/>
        <railway.topology.repair.stop-turn value="true"/>
        <railway.topology.all-bidi value="false"/>
        <railway.topology.direction-priority value="false"/>
        <railway.access-distance value="150"/>
        <railway.max-accesses value="5"/>
        <railway.access-factor value="1.5"/>
    </railway>

    <formats>
        <osm.skip-duplicates-check value="false"/>
        <osm.elevation value="true"/>
        <osm.stop-output.length value="25"/>
        <osm.stop-output.length.bus value="15"/>
        <osm.stop-output.length.tram value="25"/>
        <osm.stop-output.length.train value="200"/>
        <osm.all-attributes value="false"/>
    </formats>

    <report>
        <verbose value="true"/>
    </report>

</configuration>
-->

<additional xmlns:xsi="http://www.w3.org/2001/XMLSchema-instance" xsi:noNamespaceSchemaLocation="http://sumo.dlr.de/xsd/additional_file.xsd">
    <busStop id="-1037937586" name="Panorama-Klinik" lane="-169127813#4_1" startPos="220.47" endPos="235.47" friendlyPos="true" lines="110 112"/>
    <busStop id="-109597336" name="Brunnen" lane="-560583353#2_1" startPos="0.00" endPos="8.32" friendlyPos="true" lines="110 132"/>
    <busStop id="-109597420" name="Brückle" lane="-13622251#4_1" startPos="0.00" endPos="15.00" friendlyPos="true" lines="110 132"/>
    <busStop id="-1104997093" name="Katharinenstaffel" lane="-8812305#1_1" startPos="0.00" endPos="0.20" friendlyPos="true" lines="108 105 110 111 112"/>
    <busStop id="-11386160870" lane="-31133704#3_0" startPos="38.35" endPos="38.35" friendlyPos="true" lines="112"/>
    <busStop id="-1187477995" name="Altbach" lane="-180784454#2_0" startPos="100.50" endPos="300.50" friendlyPos="true"/>
    <busStop id="-1187534664" name="Oberesslingen" lane="-180784454#0_0" startPos="88.46" endPos="288.46" friendlyPos="true">
        <access lane="408015645_0" pos="4.19" length="8.83" friendlyPos="1"/>
        <access lane="412718963_0" pos="2.44" length="15.82" friendlyPos="1"/>
        <access lane="412718967_0" pos="2.53" length="12.04" friendlyPos="1"/>
        <access lane="412718976_0" pos="0.00" length="11.26" friendlyPos="1"/>
        <access lane="694116145_0" pos="2.13" length="9.58" friendlyPos="1"/>
    </busStop>
    <busStop id="-1187534737" name="Oberesslingen" lane="-180784448#1_0" startPos="95.10" endPos="295.10" friendlyPos="true">
        <access lane="407997542#1_0" pos="1.49" length="1.40" friendlyPos="1"/>
        <access lane="412718973#0_0" pos="0.00" length="10.50" friendlyPos="1"/>
        <access lane="694116185_0" pos="1.89" length="7.19" friendlyPos="1"/>
        <access lane="694116186_0" pos="1.33" length="8.91" friendlyPos="1"/>
        <access lane="694116189_0" pos="0.20" length="7.54" friendlyPos="1"/>
    </busStop>
    <busStop id="-1187584519" name="Esslingen (Neckar)" lane="-156199092#0_0" startPos="126.12" endPos="326.12" friendlyPos="true">
        <access lane="303780045_0" pos="0.00" length="17.98" friendlyPos="1"/>
        <access lane="303780047_0" pos="0.00" length="17.02" friendlyPos="1"/>
        <access lane="303780069#0_0" pos="0.00" length="15.54" friendlyPos="1"/>
        <access lane="303780071#0_0" pos="0.54" length="18.57" friendlyPos="1"/>
        <access lane="303780071#1_0" pos="3.69" length="11.08" friendlyPos="1"/>
    </busStop>
    <busStop id="-1187584571" name="Esslingen (Neckar)" lane="-454381994#0_0" startPos="96.28" endPos="296.28" friendlyPos="true">
        <access lane="1035471373_0" pos="37.22" length="24.78" friendlyPos="1"/>
        <access lane="303780041_0" pos="6.47" length="28.07" friendlyPos="1"/>
        <access lane="303780045_0" pos="0.00" length="25.71" friendlyPos="1"/>
        <access lane="303780069#0_0" pos="0.20" length="25.06" friendlyPos="1"/>
        <access lane="303780069#1_0" pos="2.60" length="22.38" friendlyPos="1"/>
    </busStop>
    <busStop id="-1187584623" name="Esslingen (Neckar)" lane="-156199090_0" startPos="22.91" endPos="222.91" friendlyPos="true">
        <access lane="303780047_0" pos="0.00" length="17.43" friendlyPos="1"/>
        <access lane="303780061#1_0" pos="3.41" length="21.00" friendlyPos="1"/>
        <access lane="303780063_0" pos="6.61" length="19.57" friendlyPos="1"/>
        <access lane="303780071#0_0" pos="0.00" length="13.86" friendlyPos="1"/>
        <access lane="303780071#1_0" pos="0.00" length="18.18" friendlyPos="1"/>
    </busStop>
    <busStop id="-1219607572" name="Merkel&apos;sches Bad" lane="-387401256#1_1" startPos="30.40" endPos="45.40" friendlyPos="true" lines="114 101 106 113 115"/>
    <busStop id="-125392608" name="Burg" lane="-537710741#3_1" startPos="6.36" endPos="21.36" friendlyPos="true" lines="110 112"/>
    <busStop id="-125392611" name="Hohenkreuz" lane="-12098782#5_1" startPos="19.93" endPos="34.93" friendlyPos="true" lines="110 112"/>
    <busStop id="-125392617" name="Wäldenbronn Kreuzung" lane="-12099349_1" startPos="9.53" endPos="24.53" friendlyPos="true" lines="110"/>
    <busStop id="-125392619" name="Langer Weg" lane="-560583354_1" startPos="363.92" endPos="378.92" friendlyPos="true" lines="110 132"/>
    <busStop id="-1254192526" name="Pliensauturm" lane="-350217704#3_1" startPos="0.00" endPos="15.00" friendlyPos="true" lines="114 118"/>
    <busStop id="-1460518764" name="Hinterer Holzweg" lane="-387117388_0" startPos="0.00" endPos="0.20" friendlyPos="true" lines="132"/>
    <busStop id="-1867109237" name="Eichendorffschule" lane="-400416445#1_1" startPos="0.00" endPos="15.00" friendlyPos="true" lines="118"/>
    <busStop id="-1920592400" name="Alte Steige" lane="-31133710_1" startPos="15.38" endPos="30.38" friendlyPos="true" lines="108"/>
    <busStop id="-2125467401" name="Wäldenbronn Kreuzung" lane="-12098881#5_1" startPos="103.54" endPos="118.54" friendlyPos="true" lines="111 112 132"/>
    <busStop id="-2128183646" name="Kirchackerstraße" lane="-205275738#0_1" startPos="77.46" endPos="92.46" friendlyPos="true" lines="111 112 132"/>
    <busStop id="-2157925673" name="Ebene" lane="-387296028#0_1" startPos="9.37" endPos="24.37" friendlyPos="true" lines="109"/>
    <busStop id="-2161952456" name="Bergstraße" lane="-31157172#4_1" startPos="0.00" endPos="11.97" friendlyPos="true" lines="111"/>
    <busStop id="-2164671068" name="Maienwalterstraße" lane="-24508781#0_1" startPos="31.82" endPos="46.82" friendlyPos="true" lines="109 111 132"/>
    <busStop id="-2168117768" name="Krummenacker" lane="-387155261#0_1" startPos="46.00" endPos="61.00" friendlyPos="true" lines="109 111 132"/>
    <busStop id="-2239070180" name="Waldackerweg" lane="-412792789#3_1" startPos="0.00" endPos="7.90" friendlyPos="true" lines="112"/>
    <busStop id="-245017149" name="Oberesslingen Bahnhof (Süd)" lane="-392589607#0_1" startPos="0.00" endPos="15.00" friendlyPos="true" lines="121 104"/>
    <busStop id="-248493258" name="Pfeifferklinge" lane="-432904401_1" startPos="56.42" endPos="71.42" friendlyPos="true" lines="122 131 130"/>
    <busStop id="-253915614" name="Nellingen Ostfildern" lane="-89344777#2_0" startPos="2102.74" endPos="2302.74" friendlyPos="true"/>
    <busStop id="-254785746" name="Kennenburg" lane="-387212676_1" startPos="3.73" endPos="18.73" friendlyPos="true" lines="108"/>
    <busStop id="-254785763" name="Kohlerweg" lane="-387212679#1_1" startPos="0.00" endPos="15.00" friendlyPos="true" lines="108"/>
    <busStop id="-254785773" name="Anhäuserstraße" lane="-37181832#2_1" startPos="0.00" endPos="15.00" friendlyPos="true" lines="108"/>
    <busStop id="-2557919132" name="Sulzgries Schule" lane="-387296035#0_1" startPos="0.00" endPos="15.00" friendlyPos="true" lines="109"/>
    <busStop id="-2626499005" name="Charlottenplatz" lane="-4807837#1_1" startPos="5.23" endPos="20.23" friendlyPos="true" lines="114 101 106 115 140"/>
    <busStop id="-263337116" name="Stuttgart-Obertürkheim" lane="-292876200#3_0" startPos="588.52" endPos="788.52" friendlyPos="true">
        <access lane="302576782_0" pos="1.43" length="7.55" friendlyPos="1"/>
        <access lane="302576793#1_0" pos="1.03" length="6.36" friendlyPos="1"/>
        <access lane="54989640#1_0" pos="0.15" length="8.79" friendlyPos="1"/>
        <access lane="54989899#2_0" pos="0.20" length="10.51" friendlyPos="1"/>
        <access lane="54989899#3_0" pos="2.60" length="5.37" friendlyPos="1"/>
    </busStop>
    <busStop id="-263337125" name="Esslingen-Mettingen" lane="-24304026_0" startPos="126.13" endPos="326.13" friendlyPos="true">
        <access lane="23171654_0" pos="9.45" length="5.33" friendlyPos="1"/>
        <access lane="303756895_0" pos="5.36" length="11.73" friendlyPos="1"/>
        <access lane="303756908#0_0" pos="0.00" length="11.46" friendlyPos="1"/>
        <access lane="393161161_0" pos="0.00" length="10.69" friendlyPos="1"/>
        <access lane="393161162#0_0" pos="0.00" length="5.07" friendlyPos="1"/>
    </busStop>
    <busStop id="-263337141" name="Esslingen (Neckar)" lane="-156199093#0_0" startPos="93.73" endPos="293.73" friendlyPos="true">
        <access lane="303780041_0" pos="6.47" length="17.00" friendlyPos="1"/>
        <access lane="303780045_0" pos="0.00" length="14.68" friendlyPos="1"/>
        <access lane="303780069#0_0" pos="0.00" length="12.57" friendlyPos="1"/>
        <access lane="303780069#1_0" pos="0.00" length="15.41" friendlyPos="1"/>
        <access lane="303780071#1_0" pos="3.69" length="15.23" friendlyPos="1"/>
    </busStop>
    <busStop id="-263337147" name="Oberesslingen" lane="-123444522#4_0" startPos="87.27" endPos="287.27" friendlyPos="true">
        <access lane="407997542#1_0" pos="1.49" length="8.84" friendlyPos="1"/>
        <access lane="408015645_0" pos="0.00" length="8.84" friendlyPos="1"/>
        <access lane="412718973#0_0" pos="0.00" length="2.29" friendlyPos="1"/>
        <access lane="412718973#1_0" pos="0.00" length="9.22" friendlyPos="1"/>
        <access lane="412718976_0" pos="0.20" length="9.73" friendlyPos="1"/>
    </busStop>
    <busStop id="-2648044989" name="Schelztor" lane="-442274138_1" startPos="0.84" endPos="15.84" friendlyPos="true" lines="109"/>
    <busStop id="-2649951212" name="Schlachthausbrücke" lane="-37181839#1_0" startPos="0.00" endPos="7.24" friendlyPos="true" lines="101 115">
        <access lane="-692621734_0" pos="0.00" length="7.05" friendlyPos="1"/>
        <access lane="1122913356#3_0" pos="130.29" length="8.99" friendlyPos="1"/>
        <access lane="37181839#0_0" pos="0.20" length="17.11" friendlyPos="1"/>
        <access lane="37181839#1_0" pos="0.00" length="11.10" friendlyPos="1"/>
        <access lane="692621734_0" pos="83.17" length="10.87" friendlyPos="1"/>
    </busStop>
    <busStop id="-2661523902" name="Esslingen (Neckar)" lane="-102848475#0_0" startPos="478.83" endPos="678.83" friendlyPos="true">
        <access lane="303780035_0" pos="0.00" length="10.42" friendlyPos="1"/>
        <access lane="303780042_0" pos="6.66" length="10.74" friendlyPos="1"/>
        <access lane="303780056_0" pos="0.86" length="16.35" friendlyPos="1"/>
        <access lane="303780061#0_0" pos="0.11" length="14.03" friendlyPos="1"/>
        <access lane="303780061#1_0" pos="3.41" length="1.68" friendlyPos="1"/>
    </busStop>
    <busStop id="-2681465546" name="Hirschlandstraße" lane="-993217766_0" startPos="51.05" endPos="66.05" friendlyPos="true" lines="132"/>
    <busStop id="-2690529094" name="Kreuzstraße" lane="-281956705#3_1" startPos="38.52" endPos="53.52" friendlyPos="true" lines="102 103 132"/>
    <busStop id="-269253233" name="Haus am Weinberg" lane="-431444776_0" startPos="16.93" endPos="31.93" friendlyPos="true" lines="61">
        <access lane="-172268447#4_0" pos="105.31" length="12.18" friendlyPos="1"/>
        <access lane="172268447#4_0" pos="53.99" length="15.18" friendlyPos="1"/>
        <access lane="26155907#0_0" pos="127.79" length="86.65" friendlyPos="1"/>
        <access lane="26155907#1_0" pos="0.00" length="86.37" friendlyPos="1"/>
        <access lane="548726850#2_0" pos="242.35" length="14.06" friendlyPos="1"/>
    </busStop>
    <busStop id="-270196725" name="Parksiedlung" lane="-26946516#0_0" startPos="1131.61" endPos="1331.61" friendlyPos="true">
        <access lane="148848245_0" pos="0.00" length="17.12" friendlyPos="1"/>
        <access lane="25808198_0" pos="265.17" length="18.48" friendlyPos="1"/>
        <access lane="25808290_0" pos="19.32" length="22.95" friendlyPos="1"/>
        <access lane="578322999#0_0" pos="0.00" length="11.53" friendlyPos="1"/>
        <access lane="578322999#1_0" pos="0.00" length="16.29" friendlyPos="1"/>
    </busStop>
    <busStop id="-270599198" name="Ruit Zinsholz" lane="-26946516#0_0" startPos="384.95" endPos="584.95" friendlyPos="true">
        <access lane="-573703452_0" pos="159.28" length="19.60" friendlyPos="1"/>
        <access lane="-70531948#3_0" pos="62.30" length="23.30" friendlyPos="1"/>
        <access lane="231875720#4_0" pos="69.94" length="14.80" friendlyPos="1"/>
        <access lane="25808659#1_0" pos="20.10" length="51.01" friendlyPos="1"/>
        <access lane="70531948#3_0" pos="165.77" length="26.30" friendlyPos="1"/>
    </busStop>
    <busStop id="-271464257" name="Nellingen Technische Akademie" lane="-89344777#2_0" startPos="1751.16" endPos="1951.16" friendlyPos="true">
        <access lane="-80083709#5_0" pos="0.00" length="270.59" friendlyPos="1"/>
        <access lane="30791853#2_0" pos="283.62" length="155.52" friendlyPos="1"/>
        <access lane="80083709#5_0" pos="201.25" length="271.79" friendlyPos="1"/>
    </busStop>
    <busStop id="-2724353965" name="Finkenweg" lane="-38509828#3_1" startPos="39.48" endPos="54.48" friendlyPos="true" lines="104 138"/>
    <busStop id="-27413184" name="Obertalweg" lane="-412792775_1" startPos="12.32" endPos="27.32" friendlyPos="true" lines="110"/>
    <busStop id="-27413246" name="Anna-Schieber-Weg" lane="-787951056#0_1" startPos="26.02" endPos="41.02" friendlyPos="true" lines="108 111 112"/>
    <busStop id="-274718800" name="Katzenkopf" lane="-232962013#1_0" startPos="0.00" endPos="14.08" friendlyPos="true" lines="X20">
        <access lane="-234818420#2_0" pos="0.00" length="16.30" friendlyPos="1"/>
        <access lane="-488937080_0" pos="40.00" length="35.91" friendlyPos="1"/>
        <access lane="234818420#2_0" pos="38.79" length="19.39" friendlyPos="1"/>
        <access lane="488937080_0" pos="0.00" length="37.31" friendlyPos="1"/>
        <access lane="680791706#1_0" pos="94.52" length="54.38" friendlyPos="1"/>
    </busStop>
    <busStop id="-278255586" name="Albblick" lane="-384172580#0_1" startPos="9.34" endPos="24.34" friendlyPos="true" lines="102"/>
    <busStop id="-278558094" name="Im Mäder" lane="-570449182#0_1" startPos="0.00" endPos="15.00" friendlyPos="true" lines="62 N7"/>
    <busStop id="-2789521449" name="Hochschulzentrum" lane="-185953704#0_1" startPos="8.60" endPos="23.60" friendlyPos="true" lines="105"/>
    <busStop id="-2789521450" name="Esslingen Hochschulzentrum" lane="-185953704#0_1" startPos="8.85" endPos="23.85" friendlyPos="true"/>
    <busStop id="-279915667" name="Hedelfinger Straße" lane="-68552415#2_0" startPos="220.70" endPos="420.70" friendlyPos="true">
        <access lane="-330728270_0" pos="53.77" length="92.83" friendlyPos="1"/>
        <access lane="-46895948#1_0" pos="0.00" length="111.73" friendlyPos="1"/>
        <access lane="213115694#0_0" pos="200.68" length="19.06" friendlyPos="1"/>
        <access lane="330728267#1_0" pos="167.61" length="98.24" friendlyPos="1"/>
        <access lane="330728270_0" pos="6.07" length="86.28" friendlyPos="1"/>
    </busStop>
    <busStop id="-279915677" name="Wangen Marktplatz" lane="-68552415#2_0" startPos="798.78" endPos="998.78" friendlyPos="true"/>
    <busStop id="-279915707" name="Wasenstraße" lane="-68552415#2_0" startPos="1223.05" endPos="1423.05" friendlyPos="true"/>
    <busStop id="-279930071" name="Hedelfingen" lane="-673171638_0" startPos="0.00" endPos="98.63" friendlyPos="true">
        <access lane="-27607675_0" pos="48.88" length="24.88" friendlyPos="1"/>
        <access lane="213106719_0" pos="0.00" length="24.01" friendlyPos="1"/>
        <access lane="236379218#2_0" pos="10.79" length="20.76" friendlyPos="1"/>
        <access lane="277947306#2_0" pos="16.22" length="18.97" friendlyPos="1"/>
        <access lane="59974510#0_0" pos="0.00" length="21.54" friendlyPos="1"/>
    </busStop>
    <busStop id="-280307039" name="Theodor-Heuss-Gymnasium" lane="-394114218#3_1" startPos="0.00" endPos="15.00" friendlyPos="true" lines="132"/>
    <busStop id="-282836338" name="Ährenweg" lane="-27607327#1_1" startPos="27.73" endPos="42.73" friendlyPos="true" lines="62 65"/>
    <busStop id="-2849690352" name="Oberhof" lane="-846930959_1" startPos="75.10" endPos="90.10" friendlyPos="true" lines="114 106"/>
    <busStop id="-2849690655" name="Kriegerdenkmal" lane="-23724230#3_1" startPos="140.82" endPos="155.82" friendlyPos="true" lines="108"/>
    <busStop id="-2869007744" name="Keplerstraße" lane="-23999291#0_1" startPos="0.00" endPos="0.20" friendlyPos="true" lines="115"/>
    <busStop id="-2869390055" name="Gartenstadt" lane="-37177743#1_1" startPos="5.29" endPos="20.29" friendlyPos="true" lines="102 103"/>
    <busStop id="-2869406244" name="Weiherstraße" lane="-283020993#1_2" startPos="0.00" endPos="15.00" friendlyPos="true" lines="102 103 132"/>
    <busStop id="-29027251" name="Schorndorfer Straße" lane="-4807776#1_2" startPos="0.00" endPos="0.28" friendlyPos="true" lines="102 103 132"/>
    <busStop id="-29027281" name="Alte Heusteige" lane="-39761675#0_1" startPos="262.92" endPos="277.92" friendlyPos="true" lines="102 103 115 140"/>
    <busStop id="-292664404" name="Dulkhäusle" lane="-26685613_0" startPos="22.25" endPos="37.25" friendlyPos="true" lines="108 112"/>
    <busStop id="-292664404@5751944" name="Dulkhäusle" lane="-26685613_0" startPos="22.25" endPos="37.25" friendlyPos="true" lines="108 112"/>
    <busStop id="-293231817" name="Seracher Straße" lane="-552812219_1" startPos="25.59" endPos="40.59" friendlyPos="true" lines="111 132"/>
    <busStop id="-295255872" name="Ruit" lane="-26946520#0_0" startPos="169.74" endPos="369.74" friendlyPos="true">
        <access lane="-155594269#2_0" pos="0.00" length="9.66" friendlyPos="1"/>
        <access lane="155594269#2_0" pos="45.02" length="8.05" friendlyPos="1"/>
        <access lane="440247574_0" pos="0.25" length="4.60" friendlyPos="1"/>
        <access lane="440247577_0" pos="12.24" length="5.16" friendlyPos="1"/>
        <access lane="578348083#1_0" pos="2.72" length="4.00" friendlyPos="1"/>
    </busStop>
    <busStop id="-3068257006" name="Stuttgart-Obertürkheim" lane="-23163786#3_0" startPos="116.30" endPos="316.30" friendlyPos="true">
        <access lane="176495694_0" pos="0.28" length="8.42" friendlyPos="1"/>
        <access lane="302576779_0" pos="1.16" length="8.32" friendlyPos="1"/>
        <access lane="302576789_0" pos="0.93" length="6.96" friendlyPos="1"/>
        <access lane="302576790#0_0" pos="0.00" length="9.02" friendlyPos="1"/>
        <access lane="54989899#1_0" pos="11.86" length="5.19" friendlyPos="1"/>
    </busStop>
    <busStop id="-3068257018" name="Stuttgart-Obertürkheim" lane="-48316096#2_0" startPos="123.70" endPos="323.70" friendlyPos="true">
        <access lane="176495696_0" pos="0.28" length="16.33" friendlyPos="1"/>
        <access lane="302576783_0" pos="3.86" length="11.66" friendlyPos="1"/>
        <access lane="302576784#0_0" pos="0.20" length="12.52" friendlyPos="1"/>
        <access lane="302576784#1_0" pos="0.78" length="7.84" friendlyPos="1"/>
        <access lane="302576785_0" pos="0.00" length="14.08" friendlyPos="1"/>
    </busStop>
    <busStop id="-3068304222" name="Altbach" lane="-123444522#1_0" startPos="207.83" endPos="407.83" friendlyPos="true"/>
    <busStop id="-3076074980" name="Eberhard-Bauer-Straße" lane="-387498727#0_2" startPos="21.60" endPos="36.60" friendlyPos="true" lines="102 103"/>
    <busStop id="-3081546115" name="Esslingen-Mettingen" lane="-87195276_0" startPos="163.77" endPos="363.77" friendlyPos="true">
        <access lane="-23220041#1_0" pos="0.00" length="69.59" friendlyPos="1"/>
        <access lane="-23220041#2_0" pos="157.41" length="48.47" friendlyPos="1"/>
        <access lane="146908203#0_0" pos="66.97" length="34.79" friendlyPos="1"/>
        <access lane="23220041#2_0" pos="23.56" length="61.07" friendlyPos="1"/>
        <access lane="823062063#4_0" pos="44.13" length="52.03" friendlyPos="1"/>
    </busStop>
    <busStop id="-3081546121" name="Esslingen-Mettingen" lane="-85959749#1_0" startPos="143.18" endPos="343.18" friendlyPos="true">
        <access lane="-23220041#2_0" pos="158.85" length="63.15" friendlyPos="1"/>
        <access lane="146908203#0_0" pos="63.69" length="20.80" friendlyPos="1"/>
        <access lane="23220041#2_0" pos="22.12" length="75.75" friendlyPos="1"/>
        <access lane="303756901_0" pos="14.80" length="73.63" friendlyPos="1"/>
        <access lane="823062063#4_0" pos="45.97" length="38.13" friendlyPos="1"/>
    </busStop>
    <busStop id="-3081931423" name="Esslingen (Neckar)" lane="-102841944#0_0" startPos="43.08" endPos="243.08" friendlyPos="true">
        <access lane="-316354392_0" pos="10.96" length="10.07" friendlyPos="1"/>
        <access lane="303780035_0" pos="0.20" length="8.33" friendlyPos="1"/>
        <access lane="303780042_0" pos="4.73" length="6.87" friendlyPos="1"/>
        <access lane="303780056_0" pos="0.86" length="9.88" friendlyPos="1"/>
        <access lane="303780061#0_0" pos="0.00" length="6.83" friendlyPos="1"/>
    </busStop>
    <busStop id="-3082151227" name="Esslingen-Zell" lane="-180784454#2_0" startPos="1934.84" endPos="2134.84" friendlyPos="true">
        <access lane="303790432_0" pos="0.75" length="8.25" friendlyPos="1"/>
        <access lane="31151992#0_0" pos="0.77" length="6.49" friendlyPos="1"/>
        <access lane="32689061#0_0" pos="2.93" length="6.48" friendlyPos="1"/>
        <access lane="470016589_0" pos="1.43" length="8.43" friendlyPos="1"/>
        <access lane="57869852_0" pos="0.69" length="8.33" friendlyPos="1"/>
    </busStop>
    <busStop id="-3082162048" name="Esslingen-Zell" lane="-123444522#2_0" startPos="415.78" endPos="615.78" friendlyPos="true">
        <access lane="303790430_0" pos="0.00" length="9.72" friendlyPos="1"/>
        <access lane="32689061#2_0" pos="1.45" length="9.22" friendlyPos="1"/>
        <access lane="470016589_0" pos="2.28" length="10.18" friendlyPos="1"/>
        <access lane="470016590_0" pos="1.33" length="9.62" friendlyPos="1"/>
        <access lane="470016591_0" pos="1.65" length="7.00" friendlyPos="1"/>
    </busStop>
    <busStop id="-3082162052" name="Esslingen-Zell" lane="-180784448#3_0" startPos="452.72" endPos="652.72" friendlyPos="true">
        <access lane="303790428_0" pos="3.23" length="6.40" friendlyPos="1"/>
        <access lane="303790434_0" pos="0.56" length="8.31" friendlyPos="1"/>
        <access lane="32689061#2_0" pos="5.38" length="9.62" friendlyPos="1"/>
        <access lane="32689061#3_0" pos="0.00" length="14.34" friendlyPos="1"/>
        <access lane="470016591_0" pos="1.65" length="12.72" friendlyPos="1"/>
    </busStop>
    <busStop id="-3082162066" name="Esslingen-Zell" lane="-248760538#1_0" startPos="417.56" endPos="617.56" friendlyPos="true">
        <access lane="303790428_0" pos="5.67" length="9.71" friendlyPos="1"/>
        <access lane="303790434_0" pos="0.56" length="13.20" friendlyPos="1"/>
        <access lane="32689061#3_0" pos="3.57" length="14.06" friendlyPos="1"/>
        <access lane="408012483_0" pos="3.29" length="8.28" friendlyPos="1"/>
        <access lane="408012485_0" pos="21.85" length="6.12" friendlyPos="1"/>
    </busStop>
    <busStop id="-30911797" name="Oberesslingen" lane="-248760538#3_0" startPos="94.26" endPos="294.26" friendlyPos="true">
        <access lane="407997542#0_0" pos="0.00" length="10.53" friendlyPos="1"/>
        <access lane="407997542#1_0" pos="0.00" length="15.54" friendlyPos="1"/>
        <access lane="694116185_0" pos="1.89" length="14.01" friendlyPos="1"/>
        <access lane="694116186_0" pos="1.33" length="16.80" friendlyPos="1"/>
        <access lane="694116189_0" pos="0.20" length="14.71" friendlyPos="1"/>
    </busStop>
    <busStop id="-319321739" name="Eugen-Bolz-Straße" lane="-202555475#3_1" startPos="3.52" endPos="18.52" friendlyPos="true" lines="111 112 132"/>
    <busStop id="-3213014421" name="Gestütsweg" lane="-448974992#2_1" startPos="6.44" endPos="21.44" friendlyPos="true" lines="102 103"/>
    <busStop id="-3222963807" name="Esslingen-Mettingen" lane="-1086171355_0" startPos="193.06" endPos="393.06" friendlyPos="true">
        <access lane="23171655#2_0" pos="1.15" length="12.35" friendlyPos="1"/>
        <access lane="303756894_0" pos="4.87" length="8.25" friendlyPos="1"/>
        <access lane="303756902_0" pos="0.20" length="8.26" friendlyPos="1"/>
        <access lane="303756905#0_0" pos="2.18" length="12.27" friendlyPos="1"/>
        <access lane="303756905#1_0" pos="1.96" length="3.19" friendlyPos="1"/>
    </busStop>
    <busStop id="-3471570207" name="Alleenstraße" lane="-383945637_1" startPos="43.18" endPos="58.18" friendlyPos="true" lines="104"/>
    <busStop id="-3566577209" name="Esslingen (N) ZOB" lane="-392441930_0" startPos="32.82" endPos="47.82" friendlyPos="true" lines="122 105 110"/>
    <busStop id="-3566577210" name="Esslingen (N) ZOB" lane="-386500268#0_0" startPos="0.00" endPos="15.00" friendlyPos="true" lines="108"/>
    <busStop id="-3872480827" name="Burgunderstraße" lane="-388285827#0_1" startPos="27.27" endPos="42.27" friendlyPos="true" lines="101 115"/>
    <busStop id="-3872480830" name="Mettingen Bahnhof (Trollingerweg)" lane="-383983728_1" startPos="4.35" endPos="19.35" friendlyPos="true" lines="101 115"/>
    <busStop id="-3872841418" name="Zell Steinbeisstraße" lane="-391001057#0_1" startPos="20.30" endPos="35.30" friendlyPos="true" lines="115"/>
    <busStop id="-3872841419" name="Zell Steinbeisstraße" lane="-169225671#3_1" startPos="59.84" endPos="74.84" friendlyPos="true" lines="138 102 103 115"/>
    <busStop id="-3872841423" name="Eberhard-Bauer-Stadion" lane="-37721066#1_1" startPos="11.58" endPos="26.58" friendlyPos="true" lines="102 103"/>
    <busStop id="-3872841424" name="Ebershaldenfriedhof" lane="-169224407#2_1" startPos="4.31" endPos="19.31" friendlyPos="true" lines="102 103"/>
    <busStop id="-3872841429" name="Hangelstein Kirche" lane="-25531614#3_1" startPos="0.00" endPos="10.61" friendlyPos="true" lines="102"/>
    <busStop id="-3872841431" name="Johannesstraße" lane="-4590683#5_1" startPos="0.00" endPos="15.00" friendlyPos="true" lines="102 103"/>
    <busStop id="-3872841432" name="Karl-Pfaff-Straße" lane="-383945634#1_1" startPos="3.27" endPos="18.27" friendlyPos="true" lines="102 103"/>