<?xml version="1.0" encoding="UTF-8"?>

<!-- generated on 2023-07-06 18:02:41.249876 by osmWebWizard.py v1_16_0+0000-94ec4c6cd72
  options: 
-->

<routes xmlns:xsi="http://www.w3.org/2001/XMLSchema-instance" xsi:noNamespaceSchemaLocation="http://sumo.dlr.de/xsd/routes_file.xsd">
    <vType id="pt_bus" vClass="bus"/>
    <vType id="pt_tram" vClass="tram"/>
    <vType id="pt_train" vClass="rail"/>
    <vType id="pt_subway" vClass="rail_urban"/>
    <vType id="pt_light_rail" vClass="rail_urban"/>
    <vType id="pt_monorail" vClass="rail_urban"/>
    <vType id="pt_trolleybus" vClass="bus"/>
    <vType id="pt_minibus" vClass="bus"/>
    <vType id="pt_share_taxi" vClass="taxi"/>
    <vType id="pt_aerialway" vClass="rail_urban" length="2.5" width="2" personCapacity="4"/>
    <vType id="pt_ferry" vClass="ship"/>
    <route id="pt_light_rail_U8:0" color="195,180,125" edges="12815133" >
        <stop busStop="270196725" duration="20" until="61.0"/> <!-- Parksiedlung -->
        <stop busStop="270599198" duration="20" until="136.0"/> <!-- Ruit Zinsholz -->
        <stop busStop="113591455" duration="20" until="213.0"/> <!-- Ruit -->
    </route>
    <route id="pt_light_rail_U8:1" color="195,180,125" edges="26946520 26946517#1" >
        <stop busStop="295255872" duration="20" until="53.0"/> <!-- Ruit -->
        <stop busStop="295255894" duration="20" until="128.0"/> <!-- Ruit Zinsholz -->
        <stop busStop="295255933" duration="20" until="205.0"/> <!-- Parksiedlung -->
    </route>
    <route id="pt_light_rail_U7:0" color="14,180,141" edges="12815133" >
        <stop busStop="270196725" duration="20" until="65.0"/> <!-- Parksiedlung -->
        <stop busStop="270599198" duration="20" until="141.0"/> <!-- Ruit Zinsholz -->
        <stop busStop="113591455" duration="20" until="219.0"/> <!-- Ruit -->
    </route>
    <route id="pt_light_rail_U7:1" color="14,180,141" edges="26946520 26946517#1" >
        <stop busStop="295255872" duration="20"/> <!-- Ruit -->
        <stop busStop="295255894" duration="20"/> <!-- Ruit Zinsholz -->
        <stop busStop="295255933" duration="20"/> <!-- Parksiedlung -->
    </route>
    <route id="pt_bus_121:0" color="51,92,113">
        <stop busStop="245017149" duration="20"/> <!-- Oberesslingen Bahnhof (Süd) -->
        <stop busStop="3883265541" duration="20"/> <!-- Schwertmühle -->
        <stop busStop="3883265532" duration="20"/> <!-- Max-Planck-Straße -->
    </route>
    <route id="pt_bus_119:0" color="0,101,183">
        <stop busStop="3566577206" duration="20"/> <!-- Esslingen (N) ZOB -->
        <stop busStop="-1254192526" duration="20"/>
        <stop busStop="30863641" duration="20"/>
        <stop busStop="3933810892" duration="20"/> <!-- Weilstraße -->
        <stop busStop="2711169196" duration="20"/> <!-- Im Holder -->
        <stop busStop="464733846" duration="20"/>
        <stop busStop="2426004802" duration="20"/>
        <stop busStop="66731754" duration="20"/>
    </route>
    <route id="pt_train_RE_5:0" edges="248760538#0 248760538#1 248760538#2 248760538#3 248760538#4 180784434#1 156199094#1 156199094#2 156199094#3 102848475#1 102848507#0 102848507#1 460942121#0 460942121#1 25423242#1 85959749#1 68906765 70395557#1 48316096#1 48316096#2" >
        <stop busStop="2661523902" duration="20" until="273.0"/> <!-- Esslingen (Neckar) -->
        <stop busStop="3068257018" duration="20" until="494.0"/> <!-- Stuttgart-Obertürkheim -->
    </route>
    <route id="pt_bus_121:1" color="51,92,113">
        <stop busStop="3883265532" duration="20" /> <!-- Max-Planck-Straße -->
        <stop busStop="3883265541" duration="20" /> <!-- Schwertmühle -->
        <stop busStop="245017149" duration="20"/> <!-- Oberesslingen Bahnhof (Süd) -->
    </route>
    <route id="pt_bus_109:1" color="93,203,177">
        <stop busStop="-3904477592" duration="20"/> <!-- Sulzgries Zentrum -->
        <stop busStop="3904477579" duration="20"/>
        <stop busStop="2102263746" duration="20"/>
        <stop busStop="-3566577210" duration="20"/>
    </route>
    <route id="pt_bus_109:0" color="93,203,177">
        <stop busStop="-6501810816" duration="20"/> <!-- Esslingen (N) ZOB -->
        <stop busStop="-2648044989" duration="20"/> <!-- Schelztor -->
        <stop busStop="3904477589" duration="20"/>
        <stop busStop="2157925673" duration="20"/>
        <stop busStop="2168117768" duration="20"/>
        <stop busStop="2191707682" duration="20"/>
    </route>
    <route id="pt_bus_105:1" color="12,136,68">
        <stop busStop="-3566577209" duration="20"/> <!-- Esslingen (N) ZOB -->
        <stop busStop="3872841439" duration="20"/>
        <stop busStop="2859168238" duration="20"/>
        <stop busStop="2681465401" duration="20"/>
        <stop busStop="2789521448" duration="20"/>
        <stop busStop="3887517744" duration="20"/>
        <stop busStop="6327610134" duration="20"/>
    </route>
    <route id="pt_bus_122:0" color="200,185,123">
        <stop busStop="-3566577209" duration="20"/> <!-- Esslingen (N) ZOB -->
        <stop busStop="3872841439" duration="20"/>
        <stop busStop="2637351415" duration="20"/>
        <stop busStop="1911101330" duration="20"/>
        <stop busStop="248493257" duration="20"/>
        <stop busStop="3966025662" duration="20"/>
        <stop busStop="3966025661" duration="20"/>
        <stop busStop="-6262815029" duration="20"/>
    </route>
    <route id="pt_bus_102:2" color="227,207,59">
        <stop busStop="10814468128" duration="20"/>
        <stop busStop="2869390122" duration="20"/>
        <stop busStop="2730173334" duration="20"/>
        <stop busStop="2690529094" duration="20"/>
        <stop busStop="496276886" duration="20"/>
        <stop busStop="2611247039" duration="20"/>
        <stop busStop="3872841439" duration="20"/>
        <stop busStop="3566577208" duration="20"/>
        <stop busStop="-3872841443" duration="20"/>
        <stop busStop="30863641" duration="20"/>
        <stop busStop="3872841446" duration="20"/>
        <stop busStop="3872841432" duration="20"/>
        <stop busStop="3872841448" duration="20"/> <!-- Weil -->
        <stop busStop="3872841437" duration="20"/>
        <stop busStop="3213014421" duration="20"/>
        <stop busStop="3872841447" duration="20"/>
        <stop busStop="3872480834" duration="20"/>
        <stop busStop="3872480832" duration="20"/>
        <stop busStop="3872841420" duration="20"/>
        <stop busStop="3872480825" duration="20"/>
        <stop busStop="-3872480830" duration="20"/>
    </route>
    <route id="pt_bus_138:0" color="200,43,64">
        <stop busStop="29027118" duration="20"/> <!-- Alte Steige -->
        <stop busStop="3898445272" duration="20"/>
        <stop busStop="3898445268" duration="20"/>
        <stop busStop="2849690655" duration="20"/>
        <stop busStop="29027196" duration="20"/>
        <stop busStop="-280307039" duration="20"/>
        <stop busStop="2869390122" duration="20"/>
        <stop busStop="2730173334" duration="20"/>
    </route>
    <route id="pt_bus_104:2" color="211,157,112">
        <stop busStop="3883265532" duration="20"/>
        <stop busStop="3883265541" duration="20"/>
        <stop busStop="287465536" duration="20"/>
        <stop busStop="3872841440" duration="20"/>
        <stop busStop="3933810887" duration="20"/>
        <stop busStop="3933810887" duration="20"/>
        <stop busStop="3566577208" duration="20"/>
    </route>
    <route id="pt_bus_104:3" color="211,157,112">
        <stop busStop="3883265532" duration="20"/> <!-- Max-Planck-Straße -->
        <stop busStop="3883265541" duration="20"/>
        <stop busStop="245017149" duration="20"/>
        <stop busStop="3872841439" duration="20"/>
        <stop busStop="245016532" duration="20"/>
        <stop busStop="3566577208" duration="20"/>
    </route>
    <route id="pt_bus_110:1" color="251,49,153">
        <stop busStop="-109597420" duration="20"/> <!-- Brückle -->
        <stop busStop="109597336" duration="20"/>
        <stop busStop="125392619" duration="20"/>
        <stop busStop="125392612" duration="20"/>
        <stop busStop="125392611" duration="20"/>
        <stop busStop="125392608" duration="20"/>
        <stop busStop="1037937586" duration="20"/>
        <stop busStop="3872841439" duration="20"/>
        <stop busStop="-3566577209" duration="20"/>
    </route>
    <route id="pt_bus_108:0" color="104,102,181">
        <stop busStop="-3566577210" duration="20"/> <!-- Esslingen (N) ZOB -->
        <stop busStop="3872841439" duration="20"/>
        <stop busStop="2859168238" duration="20"/>
        <stop busStop="254785763" duration="20"/>
        <stop busStop="254785773" duration="20"/>
        <stop busStop="2849690655" duration="20"/>
        <stop busStop="3898445268" duration="20"/>
        <stop busStop="29027150" duration="20"/>
        <stop busStop="1920592400" duration="20"/>
        <stop busStop="1920592400" duration="20"/>
    </route>
    <route id="pt_trolleybus_118:0" color="193,98,53">
        <stop busStop="3224629436" duration="20"/> <!-- Esslingen (N) ZOB -->
        <stop busStop="-1254192526" duration="20"/>
        <stop busStop="30863641" duration="20"/>
        <stop busStop="3933810892" duration="20"/> <!-- Weilstraße -->
        <stop busStop="2711169196" duration="20"/> <!-- Im Holder -->
        <stop busStop="-89023451" duration="20"/>
        <stop busStop="3280786467" duration="20"/>
        <stop busStop="1867109237" duration="20"/>
        <stop busStop="247224583" duration="20"/>
        <stop busStop="3947901614" duration="20"/>
        <stop busStop="2426004802" duration="20"/>
        <stop busStop="464733846" duration="20"/>
        <stop busStop="6550964524" duration="20"/>
        <stop busStop="3523843331" duration="20"/>
        <stop busStop="3872841438" duration="20"/>
        <stop busStop="-1254192526" duration="20"/>
        <stop busStop="3224629436" duration="20"/>
    </route>
    <route id="pt_bus_104:0" color="211,157,112" >
        <stop busStop="3566577208" duration="20" /> <!-- Esslingen (N) ZOB -->
        <stop busStop="-6515317595" duration="20"/>
        <stop busStop="3933810887" duration="20"/>
        <stop busStop="3872841440" duration="20"/>
        <stop busStop="287465536" duration="20"/>
        <stop busStop="3883265541" duration="20"/>
        <stop busStop="6537655109" duration="20"/>
    </route>
    <route id="pt_bus_111:1" color="255,181,48">
        <stop busStop="3904767718" duration="20"/>
        <stop busStop="2161952456" duration="20"/>
        <stop busStop="-3904477592" duration="20"/>
        <stop busStop="2168117768" duration="20"/>
        <stop busStop="2100381832" duration="20"/>
        <stop busStop="2100381840" duration="20"/>
        <stop busStop="109597051" duration="20"/>
        <stop busStop="125392612" duration="20"/>
        <stop busStop="2128183646" duration="20"/>
        <stop busStop="319321739" duration="20"/>
        <stop busStop="1967351665" duration="20"/>
        <stop busStop="3887517742" duration="20"/>
        <stop busStop="27413881" duration="20"/>
        <stop busStop="2637351415" duration="20"/>
        <stop busStop="-1254192526" duration="20"/>
        <stop busStop="-3566577210" duration="20"/>


    </route>
    <route id="pt_bus_102:3" color="227,207,59">
        <stop busStop="10814468128" duration="20"/>
        <stop busStop="2869390122" duration="20"/>
        <stop busStop="2730173334" duration="20"/>
        <stop busStop="2690529094" duration="20"/>
        <stop busStop="496276886" duration="20"/>
        <stop busStop="2611247039" duration="20"/>
        <stop busStop="3872841439" duration="20"/>
        <stop busStop="3566577208" duration="20"/>
        <stop busStop="-3872841443" duration="20"/>
        <stop busStop="30863641" duration="20"/>
        <stop busStop="3872841446" duration="20"/>
        <stop busStop="3872841432" duration="20"/>
        <stop busStop="3872841448" duration="20"/> <!-- Weil -->
        <stop busStop="3872841437" duration="20"/>
        <stop busStop="3872841427" duration="20"/>
        <stop busStop="1786518020" duration="20"/>
        <stop busStop="3872480834" duration="20"/>
        <stop busStop="3872480832" duration="20"/>
        <stop busStop="3872841420" duration="20"/>
        <stop busStop="3872480827" duration="20"/>
        <stop busStop="2939873614" duration="20"/>
    </route>
    <route id="pt_train_S1:0" color="92,142,60" edges="292876200#0 292876200#1 68908209#0 68908209#1 292876202#0 292876202#1 454381995 102807136#1 102807136#2 102848495#1 102848495#2 102848495#3 102848495#4 454381994#1 292876199#0 292876199#1 292876199#2 292876199#3 292876199#4 180784454#1 180784454#2 180784454#3" >
        <stop busStop="263337116" duration="20" until="105.0"/> <!-- Stuttgart-Obertürkheim -->
        <stop busStop="263337125" duration="20" until="263.0"/> <!-- Esslingen-Mettingen -->
        <stop busStop="1187584571" duration="20" until="435.0"/> <!-- Esslingen (Neckar) -->
        <stop busStop="1187534664" duration="20" until="609.0"/> <!-- Oberesslingen -->
        <stop busStop="3082151227" duration="20" until="793.0"/> <!-- Esslingen-Zell -->
        <stop busStop="1187477995" duration="20" until="955.0"/> <!-- Altbach -->
    </route>
    <route id="pt_bus_114:0" color="187,148,184">
        <stop busStop="2739052081" duration="20"/> <!-- Esslingen (N) ZOB -->
        <stop busStop="-1254192526" duration="20"/> <!-- Pliensauturm -->
        <stop busStop="1219607572" duration="20"/> <!-- Merkel'sches Bad -->
        <stop busStop="2626499005" duration="20"/> <!-- Charlottenplatz -->
        <stop busStop="3876394649" duration="20"/>
    </route>
    <route id="pt_bus_131:0" color="248,60,90">
        <stop busStop="3224629436" duration="20"/> <!-- Esslingen (N) ZOB -->
        <stop busStop="-3872841443" duration="20"/> <!-- Pliensauturm -->
        <stop busStop="30863641" duration="20"/>
        <stop busStop="1911101330" duration="20"/>
        <stop busStop="248493257" duration="20"/>
        <stop busStop="3966025662" duration="20"/>
        <stop busStop="3966025661" duration="20"/>
        <stop busStop="-6262815029" duration="20"/>
        <stop busStop="3968318266" duration="20"/>
        <stop busStop="-3968318269" duration="20"/>
    </route>
    <route id="pt_bus_102:5" color="227,207,59">
        <stop busStop="10814468128" duration="20"/>
        <stop busStop="2869390122" duration="20"/>
        <stop busStop="2730173334" duration="20"/>
        <stop busStop="2690529094" duration="20"/>
        <stop busStop="496276886" duration="20"/>
        <stop busStop="2611247039" duration="20"/>
        <stop busStop="3872841439" duration="20"/>
        <stop busStop="3566577208" duration="20"/>
        <stop busStop="-3872841443" duration="20"/>
        <stop busStop="30863641" duration="20"/>
        <stop busStop="3872841446" duration="20"/>
        <stop busStop="3872841432" duration="20"/>
        <stop busStop="3872841448" duration="20"/> <!-- Weil -->
        <stop busStop="3872841437" duration="20"/>
        <stop busStop="3872841427" duration="20"/>
        <stop busStop="1786518020" duration="20"/>
        <stop busStop="3872480834" duration="20"/>
        <stop busStop="3872480832" duration="20"/>
        <stop busStop="3872841420" duration="20"/>
        <stop busStop="3872480827" duration="20"/>
        <stop busStop="2939873614" duration="20"/>
    </route>
    <route id="pt_bus_102:0" color="227,207,59">
        <stop busStop="6501566929" duration="20"/>
        <stop busStop="3872480825" duration="20"/>
        <stop busStop="3872841420" duration="20"/>
        <stop busStop="3872480832" duration="20"/>
        <stop busStop="3872480834" duration="20"/>
        <stop busStop="1786518020" duration="20"/>
        <stop busStop="3213014421" duration="20"/>
        <stop busStop="3872841437" duration="20"/>
        <stop busStop="3076074768" duration="20"/>
        <stop busStop="-3968318269" duration="20"/>
        <stop busStop="3872841432" duration="20"/>
        <stop busStop="3872841446" duration="20"/>
        <stop busStop="30863641" duration="20"/>
        <stop busStop="-3872841443" duration="20"/>
        <stop busStop="3566577208" duration="20"/>
        <stop busStop="-2648044989" duration="20"/>
        <stop busStop="3872841439" duration="20"/>
        <stop busStop="2611247039" duration="20"/>
        <stop busStop="496276886" duration="20"/>
        <stop busStop="2690529094" duration="20"/>
        <stop busStop="2730173334" duration="20"/>
        <stop busStop="2869390122" duration="20"/> <!-- Weiherstraße -->
        <stop busStop="10814468128" duration="20"/>
    </route>
    <route id="pt_bus_122:1" color="200,185,123">
        <stop busStop="-6262815029" duration="20"/> <!-- Parksiedlung Robert-Koch-Straße -->
        <stop busStop="66731754" duration="20"/>
        <stop busStop="6550964554" duration="20"/>
        <stop busStop="248493258" duration="20"/>
        <stop busStop="3933810892" duration="20"/>
        <stop busStop="27413262" duration="20"/>
        <stop busStop="3872841440" duration="20"/>
        <stop busStop="3876398757" duration="20"/>
        <stop busStop="-3566577209" duration="20"/>
    </route>
    <route id="pt_bus_105:0" color="12,136,68">
        <stop busStop="6327610134" duration="20"/> <!-- Am Schönen Rain -->
        <stop busStop="3887517744" duration="20"/>
        <stop busStop="2789521449" duration="20"/>
        <stop busStop="3872841435" duration="20"/>
        <stop busStop="6550732640" duration="20"/>
        <stop busStop="27413254" duration="20"/>
        <stop busStop="3872841440" duration="20"/>
        <stop busStop="6501810842" duration="20"/>
        <stop busStop="-3566577209" duration="20"/>
    </route>
    <route id="pt_bus_132:2" color="146,141,29">
        <stop busStop="-109597420" duration="20"/> <!-- Brückle -->
        <stop busStop="109597336" duration="20"/>
        <stop busStop="125392619" duration="20"/>
        <stop busStop="2125467401" duration="20"/>
        <stop busStop="2128183646" duration="20"/>
        <stop busStop="319321739" duration="20"/>
        <stop busStop="1967351665" duration="20"/>
        <stop busStop="2681465546" duration="20"/>
        <stop busStop="2859168238" duration="20"/>
        <stop busStop="2690529094" duration="20"/>
        <stop busStop="2730173334" duration="20"/>
        <stop busStop="2869390122" duration="20"/>
        <stop busStop="-280307039" duration="20"/>
    </route>
    <route id="pt_bus_131:1" color="248,60,90">
        <stop busStop="-3968318269" duration="20"/> <!-- Parksiedlung Parkstraße -->
        <stop busStop="3968318266" duration="20"/>
        <stop busStop="3966025663" duration="20"/>
        <stop busStop="66731754" duration="20"/>
        <stop busStop="6550964554" duration="20"/>
        <stop busStop="248493258" duration="20"/>
        <stop busStop="3523843331" duration="20"/>
        <stop busStop="3872841438" duration="20"/>
        <stop busStop="-3872841443" duration="20"/>
        <stop busStop="3224629436" duration="20"/>
    </route>
    <route id="pt_bus_103:3" color="135,74,10">
        <stop busStop="1786518020" duration="20"/> <!-- Wannenrain -->
        <stop busStop="3213014421" duration="20"/>
        <stop busStop="3872841437" duration="20"/>
        <stop busStop="3076074768" duration="20"/>
        <stop busStop="3872841432" duration="20"/>
        <stop busStop="3872841446" duration="20"/>
        <stop busStop="30863641" duration="20"/>
        <stop busStop="-6515317538" duration="20"/>
        <stop busStop="-6501810816" duration="20"/>
        <stop busStop="-2648044989" duration="20"/>
        <stop busStop="3872841439" duration="20"/>
        <stop busStop="2611247039" duration="20"/>
        <stop busStop="496276886" duration="20"/>
        <stop busStop="2690529094" duration="20"/>
        <stop busStop="30895400" duration="20"/>
        <stop busStop="2730173334" duration="20"/>
        <stop busStop="2869390122" duration="20"/>
        <stop busStop="10814468128" duration="20"/>
    </route>
    <route id="pt_bus_102:1" color="227,207,59">
        <stop busStop="6501566929" duration="20"/>
        <stop busStop="3872480825" duration="20"/>
        <stop busStop="3872841420" duration="20"/>
        <stop busStop="3872480832" duration="20"/>
        <stop busStop="3872480834" duration="20"/>
        <stop busStop="1786518020" duration="20"/>
        <stop busStop="3213014421" duration="20"/>
        <stop busStop="3872841437" duration="20"/>
        <stop busStop="3076074768" duration="20"/>
        <stop busStop="-3968318269" duration="20"/>
        <stop busStop="3872841432" duration="20"/>
        <stop busStop="3872841446" duration="20"/>
        <stop busStop="30863641" duration="20"/>
        <stop busStop="-3872841443" duration="20"/>
        <stop busStop="3566577208" duration="20"/>
        <stop busStop="-2648044989" duration="20"/>
        <stop busStop="3872841439" duration="20"/>
        <stop busStop="2611247039" duration="20"/>
        <stop busStop="496276886" duration="20"/>
        <stop busStop="2690529094" duration="20"/>
        <stop busStop="2730173334" duration="20"/>
        <stop busStop="2869390122" duration="20"/> <!-- Weiherstraße -->
        <stop busStop="10814468128" duration="20"/>
    </route>
    <route id="pt_bus_103:5" color="135,74,10">
        <stop busStop="1786518020" duration="20"/> <!-- Wannenrain -->
        <stop busStop="3213014421" duration="20"/>
        <stop busStop="3872841437" duration="20"/>
        <stop busStop="3076074768" duration="20"/>
        <stop busStop="3872841432" duration="20"/>
        <stop busStop="3872841446" duration="20"/>
        <stop busStop="30863641" duration="20"/>
        <stop busStop="-6515317538" duration="20"/>
        <stop busStop="-6501810816" duration="20"/>
        <stop busStop="-2648044989" duration="20"/>
        <stop busStop="3872841439" duration="20"/>
        <stop busStop="2611247039" duration="20"/>
        <stop busStop="496276886" duration="20"/>
        <stop busStop="2690529094" duration="20"/>
        <stop busStop="30895400" duration="20"/>
        <stop busStop="2730173334" duration="20"/>
        <stop busStop="2869390122" duration="20"/>
        <stop busStop="10814468128" duration="20"/>
    </route>
    <route id="pt_bus_113:3" color="24,197,244">
        <stop busStop="3933810878" duration="20"/> <!-- Adenauerbrücke (oben) -->
        <stop busStop="3883265534" duration="20"/>
        <stop busStop="245016532" duration="20"/>
        <stop busStop="-6515317538" duration="20"/>
        <stop busStop="3224629436" duration="20"/>
    </route>
    <route id="pt_train_S1:1" color="92,142,60" edges="123444522#0 123444522#1 123444522#2 123444522#3 123444522#4 123444522#5 180784432#1 180784439#1 180784439#2 180784439#3 180784439#4 180784439#5 180784439#6 180784439#7 445470518 156199093#1 102841941 -102848495#2 -102848495#1 102841943 156199093#3 460942119#0 460942119#1 286146962#1 286146962#2 284659686#1 85959750#1 68908219#0 68908219#1 23163786#0 23163786#1 23163786#2 23163786#3 23163786#4" >
        <stop busStop="3068304222" duration="20" until="107.0"/> <!-- Altbach -->
        <stop busStop="3082162048" duration="20" until="269.0"/> <!-- Esslingen-Zell -->
        <stop busStop="263337147" duration="20" until="453.0"/> <!-- Oberesslingen -->
        <stop busStop="263337141" duration="20" until="627.0"/> <!-- Esslingen (Neckar) -->
        <stop busStop="3222963807" duration="20" until="799.0"/> <!-- Esslingen-Mettingen -->
        <stop busStop="3068257006" duration="20" until="957.0"/> <!-- Stuttgart-Obertürkheim -->
    </route>
    <route id="pt_bus_119:1" color="0,101,183">
        <stop busStop="2426004802" duration="20"/> <!-- Zollberg -->
        <stop busStop="-89023451" duration="20"/> <!-- Oberer Eisbergweg -->
        <stop busStop="2711169196" duration="20"/>
        <stop busStop="3933810892" duration="20"/>
        <stop busStop="3872841438" duration="20"/>
        <stop busStop="-6515317538" duration="20"/>
        <stop busStop="3566577206" duration="20"/>
    </route>
    <route id="pt_trolleybus_101:1" color="255,46,29">
        <stop busStop="3876394653" duration="20"/> <!-- Stadtgrenze -->
        <stop busStop="3876398769" duration="20"/>
        <stop busStop="6501566929" duration="20"/>
        <stop busStop="3872480825" duration="20"/>
        <stop busStop="6501566928" duration="20"/>
        <stop busStop="2649951212" duration="20"/>
        <stop busStop="6501810842" duration="20"/>
        <stop busStop="3566577208" duration="20"/>
        <stop busStop="-1254192526" duration="20"/>
        <stop busStop="1219607507" duration="20"/>
        <stop busStop="1219607437" duration="20"/>
        <stop busStop="3876394647" duration="20"/>
        <stop busStop="3876394649" duration="20"/>
        <stop busStop="30895400" duration="20"/>
        <stop busStop="1219607569" duration="20"/>
        <stop busStop="3876394651" duration="20"/>
    </route>
    <route id="pt_bus_102:4" color="227,207,59">
 <stop busStop="6501566929" duration="20"/>
        <stop busStop="3872480825" duration="20"/>
        <stop busStop="3872841420" duration="20"/>
        <stop busStop="3872480832" duration="20"/>
        <stop busStop="3872480834" duration="20"/>
        <stop busStop="1786518020" duration="20"/>
        <stop busStop="3213014421" duration="20"/>
        <stop busStop="3872841437" duration="20"/>
        <stop busStop="3076074768" duration="20"/>
        <stop busStop="-3968318269" duration="20"/>
        <stop busStop="3872841432" duration="20"/>
        <stop busStop="3872841446" duration="20"/>
        <stop busStop="30863641" duration="20"/>
        <stop busStop="-3872841443" duration="20"/>
        <stop busStop="3566577208" duration="20"/>
        <stop busStop="-2648044989" duration="20"/>
        <stop busStop="3872841439" duration="20"/>
        <stop busStop="2611247039" duration="20"/>
        <stop busStop="496276886" duration="20"/>
        <stop busStop="2690529094" duration="20"/>
        <stop busStop="2730173334" duration="20"/>
        <stop busStop="2869390122" duration="20"/> <!-- Weiherstraße -->
        <stop busStop="10814468128" duration="20"/>
    </route>
    <route id="pt_bus_132:0" color="146,141,29">
    <stop busStop="-280307039" duration="20"/> <!-- Theodor-Heuss-Gymnasium -->
    <stop busStop="2869406244" duration="20"/>
    <stop busStop="3872841451" duration="20"/>
    <stop busStop="2690529094" duration="20"/>
    <stop busStop="6550732640" duration="20"/>
    <stop busStop="2681465554" duration="20"/>
    <stop busStop="437566098" duration="20"/>
    <stop busStop="8978123344" duration="20"/>
    <stop busStop="2125467407" duration="20"/>
    <stop busStop="2128184468" duration="20"/>
    <stop busStop="109597336" duration="20"/>
    <stop busStop="-109597420" duration="20"/>
    </route>
    <route id="pt_bus_103:4" color="135,74,10">
        <stop busStop="1786518020" duration="20"/> <!-- Wannenrain -->
        <stop busStop="3213014421" duration="20"/>
        <stop busStop="3872841437" duration="20"/>
        <stop busStop="3076074768" duration="20"/>
        <stop busStop="3872841432" duration="20"/>
        <stop busStop="3872841446" duration="20"/>
        <stop busStop="30863641" duration="20"/>
        <stop busStop="-6515317538" duration="20"/>
        <stop busStop="-6501810816" duration="20"/>
        <stop busStop="-2648044989" duration="20"/>
        <stop busStop="3872841439" duration="20"/>
        <stop busStop="2611247039" duration="20"/>
        <stop busStop="496276886" duration="20"/>
        <stop busStop="2690529094" duration="20"/>
        <stop busStop="30895400" duration="20"/>
        <stop busStop="2730173334" duration="20"/>
        <stop busStop="2869390122" duration="20"/>
        <stop busStop="10814468128" duration="20"/>
    </route>
    <route id="pt_bus_113:2" color="24,197,244">
        <stop busStop="3933810878" duration="20"/> <!-- Adenauerbrücke (oben) -->
        <stop busStop="3883265534" duration="20"/>
        <stop busStop="245016532" duration="20"/>
        <stop busStop="-6515317538" duration="20"/>
        <stop busStop="3224629436" duration="20"/>
    </route>
    <route id="pt_bus_132:1" color="146,141,29">
        <stop busStop="-109597420" duration="20"/> <!-- Brückle -->
        <stop busStop="109597336" duration="20"/>
        <stop busStop="125392619" duration="20"/>
        <stop busStop="2125467401" duration="20"/>
        <stop busStop="2128183646" duration="20"/>
        <stop busStop="319321739" duration="20"/>
        <stop busStop="1967351665" duration="20"/>
        <stop busStop="2681465546" duration="20"/>
        <stop busStop="2859168238" duration="20"/>
        <stop busStop="2690529094" duration="20"/>
        <stop busStop="2730173334" duration="20"/>
        <stop busStop="2869390122" duration="20"/>
        <stop busStop="-280307039" duration="20"/>    </route>
    <route id="pt_bus_110:0" color="251,49,153">
        <stop busStop="-3566577209" duration="20"/> <!-- Esslingen (N) ZOB -->
        <!-- Schelztor -->
        <stop busStop="3872841440" duration="20"/>
        <stop busStop="27413254" duration="20"/>
        <stop busStop="125392606" duration="20"/>
        <stop busStop="125392608" duration="20"/>
        <stop busStop="6536523881" duration="20"/>
        <stop busStop="125392617" duration="20"/>
        <stop busStop="2128184468" duration="20"/>
        <stop busStop="109597336" duration="20"/>
        <stop busStop="-109597420" duration="20"/>
    </route>
    <route id="pt_bus_115:0" color="0,183,225">
        <stop busStop="2739052081" duration="20"/>
        <stop busStop="-1254192526" duration="20"/>