<?xml version="1.0" encoding="UTF-8"?>

<!-- generated on 2023-07-06 18:02:33 by Eclipse SUMO netconvert Version 1.16.0
<configuration xmlns:xsi="http://www.w3.org/2001/XMLSchema-instance" xsi:noNamespaceSchemaLocation="http://sumo.dlr.de/xsd/netconvertConfiguration.xsd">

    <input>
        <type-files value="${SUMO_HOME}/data/typemap/osmNetconvert.typ.xml,${SUMO_HOME}/data/typemap/osmNetconvertAerialway.typ.xml"/>
        <osm-files value="osm_bbox.osm.xml.gz"/>
    </input>

    <output>
        <output-file value="osm.net.xml.gz"/>
        <output.street-names value="true"/>
        <output.original-names value="true"/>
        <ptstop-output value="osm_stops.add.xml"/>
        <ptline-output value="osm_ptlines.xml"/>
    </output>

    <projection>
        <proj.utm value="true"/>
    </projection>

    <processing>
        <geometry.remove value="true"/>
        <roundabouts.guess value="true"/>
    </processing>

    <tls_building>
        <tls.discard-simple value="true"/>
        <tls.join value="true"/>
        <tls.guess-signals value="true"/>
        <tls.default-type value="actuated"/>
    </tls_building>

    <ramp_guessing>
        <ramps.guess value="true"/>
    </ramp_guessing>

    <junctions>
        <junctions.join value="true"/>
        <junctions.corner-detail value="5"/>
    </junctions>

    <railway>
        <railway.topology.repair value="true"/>
    </railway>

</configuration>
-->

<additional xmlns:xsi="http://www.w3.org/2001/XMLSchema-instance" xsi:noNamespaceSchemaLocation="http://sumo.dlr.de/xsd/additional_file.xsd">
    <busStop id="-109597420" name="Brückle" lane="-13622251#2_0" startPos="20.92" endPos="35.92" friendlyPos="true" lines="110 132"/>
    <busStop id="-1187477995" name="Altbach" lane="-180784454#2_0" startPos="100.50" endPos="300.50" friendlyPos="true"/>
    <busStop id="-1187534664" name="Oberesslingen" lane="-180784454#0_0" startPos="88.46" endPos="288.46" friendlyPos="true">
        <access lane="408015643_0" pos="0.00" length="5.36" friendlyPos="1"/>
        <access lane="408015645_0" pos="3.99" length="8.84" friendlyPos="1"/>
        <access lane="412718967_0" pos="2.53" length="12.04" friendlyPos="1"/>
        <access lane="412718976_0" pos="0.00" length="11.26" friendlyPos="1"/>
        <access lane="694116145_0" pos="2.13" length="9.58" friendlyPos="1"/>
    </busStop>
    <busStop id="-1187534737" name="Oberesslingen" lane="-180784448#1_0" startPos="95.10" endPos="295.10" friendlyPos="true">
        <access lane="407997542#1_0" pos="1.49" length="1.40" friendlyPos="1"/>
        <access lane="412718973#0_0" pos="0.00" length="10.50" friendlyPos="1"/>
        <access lane="694116185_0" pos="1.89" length="7.19" friendlyPos="1"/>
        <access lane="694116186_0" pos="1.33" length="8.91" friendlyPos="1"/>
        <access lane="694116189_0" pos="0.20" length="7.54" friendlyPos="1"/>
    </busStop>
    <busStop id="-1187584519" name="Esslingen (Neckar)" lane="-156199092#0_0" startPos="126.12" endPos="326.12" friendlyPos="true">
        <access lane="303780045_0" pos="0.00" length="17.98" friendlyPos="1"/>
        <access lane="303780047_0" pos="0.00" length="17.02" friendlyPos="1"/>
        <access lane="303780069#0_0" pos="0.00" length="15.54" friendlyPos="1"/>
        <access lane="303780071#0_0" pos="0.54" length="18.57" friendlyPos="1"/>
        <access lane="303780071#1_0" pos="3.69" length="11.08" friendlyPos="1"/>
    </busStop>
    <busStop id="-1187584571" name="Esslingen (Neckar)" lane="-454381994#0_0" startPos="96.28" endPos="296.28" friendlyPos="true">
        <access lane="1035471373_0" pos="37.22" length="24.78" friendlyPos="1"/>
        <access lane="303780041_0" pos="6.47" length="28.07" friendlyPos="1"/>
        <access lane="303780045_0" pos="0.00" length="25.71" friendlyPos="1"/>
        <access lane="303780069#0_0" pos="0.20" length="25.06" friendlyPos="1"/>
        <access lane="303780069#1_0" pos="2.60" length="22.38" friendlyPos="1"/>
    </busStop>
    <busStop id="-1254192526" name="Pliensauturm" lane="-350217704#3_0" startPos="0.00" endPos="15.00" friendlyPos="true" lines="114"/>
    <busStop id="-263337116" name="Stuttgart-Obertürkheim" lane="-292876200#1_0" startPos="588.52" endPos="788.52" friendlyPos="true">
        <access lane="-344566273#0_0" pos="313.95" length="218.38" friendlyPos="1"/>
        <access lane="-461133489_0" pos="0.00" length="14.72" friendlyPos="1"/>
        <access lane="340187481#1_0" pos="571.86" length="11.91" friendlyPos="1"/>
        <access lane="344566273#0_0" pos="75.95" length="221.38" friendlyPos="1"/>
        <access lane="431444821#4_0" pos="257.63" length="180.50" friendlyPos="1"/>
    </busStop>
    <busStop id="-263337125" name="Esslingen-Mettingen" lane="-24304026_0" startPos="126.13" endPos="326.13" friendlyPos="true">
        <access lane="23171654_0" pos="11.45" length="5.33" friendlyPos="1"/>
        <access lane="303756895_0" pos="5.36" length="11.73" friendlyPos="1"/>
        <access lane="303756908#0_0" pos="0.00" length="11.46" friendlyPos="1"/>
        <access lane="393161161_0" pos="0.00" length="10.69" friendlyPos="1"/>
        <access lane="393161162#0_0" pos="0.00" length="5.07" friendlyPos="1"/>
    </busStop>
    <busStop id="-263337141" name="Esslingen (Neckar)" lane="-156199093#0_0" startPos="93.73" endPos="293.73" friendlyPos="true">
        <access lane="303780041_0" pos="6.47" length="17.00" friendlyPos="1"/>
        <access lane="303780045_0" pos="0.00" length="14.68" friendlyPos="1"/>
        <access lane="303780069#0_0" pos="0.00" length="12.57" friendlyPos="1"/>
        <access lane="303780069#1_0" pos="0.00" length="15.41" friendlyPos="1"/>
        <access lane="303780071#1_0" pos="3.69" length="15.23" friendlyPos="1"/>
    </busStop>
    <busStop id="-263337147" name="Oberesslingen" lane="-123444522#4_0" startPos="87.27" endPos="287.27" friendlyPos="true">
        <access lane="407997542#1_0" pos="1.49" length="8.84" friendlyPos="1"/>
        <access lane="408015645_0" pos="0.00" length="8.84" friendlyPos="1"/>
        <access lane="412718973#0_0" pos="0.00" length="2.29" friendlyPos="1"/>
        <access lane="412718973#1_0" pos="0.00" length="9.22" friendlyPos="1"/>
        <access lane="412718976_0" pos="0.20" length="9.73" friendlyPos="1"/>
    </busStop>
    <busStop id="-2648044989" name="Schelztor" lane="-442274138_0" startPos="0.83" endPos="15.83" friendlyPos="true" lines="109"/>
    <busStop id="-2661523902" name="Esslingen (Neckar)" lane="-102848475#0_0" startPos="478.83" endPos="678.83" friendlyPos="true">
        <access lane="303780035_0" pos="0.00" length="10.42" friendlyPos="1"/>
        <access lane="303780042_0" pos="6.66" length="10.74" friendlyPos="1"/>
        <access lane="303780056_0" pos="0.86" length="16.35" friendlyPos="1"/>
        <access lane="303780061#0_0" pos="0.11" length="14.03" friendlyPos="1"/>
        <access lane="303780061#1_0" pos="3.41" length="1.68" friendlyPos="1"/>
    </busStop>
    <busStop id="-280307039" name="Theodor-Heuss-Gymnasium" lane="-394114218#3_0" startPos="0.00" endPos="15.00" friendlyPos="true" lines="132"/>
    <busStop id="-2869007744" name="Keplerstraße" lane="-23999291#0_0" startPos="0.00" endPos="15.20" friendlyPos="true" lines="115 138"/>
    <busStop id="-3068257006" name="Stuttgart-Obertürkheim" lane="-23163786#3_0" startPos="116.30" endPos="316.30" friendlyPos="true">
        <access lane="-344566273#0_0" pos="308.44" length="238.47" friendlyPos="1"/>
        <access lane="-461133489_0" pos="3.80" length="33.06" friendlyPos="1"/>
        <access lane="340187481#1_0" pos="568.06" length="30.06" friendlyPos="1"/>
        <access lane="344566273#0_0" pos="81.46" length="241.47" friendlyPos="1"/>
        <access lane="431444821#4_0" pos="257.63" length="201.08" friendlyPos="1"/>
    </busStop>
    <busStop id="-3068257018" name="Stuttgart-Obertürkheim" lane="-48316096#1_0" startPos="123.70" endPos="323.70" friendlyPos="true">
        <access lane="-344566273#0_0" pos="303.01" length="269.90" friendlyPos="1"/>
        <access lane="-461133489_0" pos="11.91" length="63.35" friendlyPos="1"/>
        <access lane="340187481#1_0" pos="559.95" length="60.35" friendlyPos="1"/>
        <access lane="344566273#0_0" pos="86.89" length="272.90" friendlyPos="1"/>
        <access lane="431444821#4_0" pos="257.63" length="233.20" friendlyPos="1"/>
    </busStop>
    <busStop id="-3068304222" name="Altbach" lane="-123444522#1_0" startPos="207.83" endPos="407.83" friendlyPos="true"/>
    <busStop id="-3081546115" name="Esslingen-Mettingen" lane="-87195276_0" startPos="163.77" endPos="363.77" friendlyPos="true">
        <access lane="-23220041#1_0" pos="0.00" length="72.93" friendlyPos="1"/>
        <access lane="-23220041#2_0" pos="157.45" length="52.37" friendlyPos="1"/>
        <access lane="146908203#0_0" pos="66.85" length="39.44" friendlyPos="1"/>
        <access lane="23220041#2_0" pos="23.45" length="57.17" friendlyPos="1"/>
        <access lane="823062063#4_0" pos="43.82" length="47.37" friendlyPos="1"/>
    </busStop>
    <busStop id="-3081546121" name="Esslingen-Mettingen" lane="-85959749#1_0" startPos="143.18" endPos="343.18" friendlyPos="true">
        <access lane="-23220041#2_0" pos="158.89" length="67.05" friendlyPos="1"/>
        <access lane="146908203#0_0" pos="63.56" length="25.45" friendlyPos="1"/>
        <access lane="23220041#2_0" pos="22.01" length="71.85" friendlyPos="1"/>
        <access lane="303756901_0" pos="14.80" length="73.63" friendlyPos="1"/>
        <access lane="823062063#4_0" pos="45.81" length="33.48" friendlyPos="1"/>
    </busStop>
    <busStop id="-3082151227" name="Esslingen-Zell" lane="-180784454#2_0" startPos="1934.84" endPos="2134.84" friendlyPos="true"/>
    <busStop id="-3082162048" name="Esslingen-Zell" lane="-123444522#2_0" startPos="415.78" endPos="615.78" friendlyPos="true"/>
    <busStop id="-3082162052" name="Esslingen-Zell" lane="-180784448#3_0" startPos="452.72" endPos="652.72" friendlyPos="true"/>
    <busStop id="-3082162066" name="Esslingen-Zell" lane="-248760538#1_0" startPos="417.56" endPos="617.56" friendlyPos="true"/>
    <busStop id="-30911797" name="Oberesslingen" lane="-248760538#3_0" startPos="94.26" endPos="294.26" friendlyPos="true">
        <access lane="407997542#0_0" pos="0.00" length="10.53" friendlyPos="1"/>
        <access lane="407997542#1_0" pos="0.00" length="15.54" friendlyPos="1"/>
        <access lane="694116185_0" pos="1.89" length="14.01" friendlyPos="1"/>
        <access lane="694116186_0" pos="1.33" length="16.80" friendlyPos="1"/>
        <access lane="694116189_0" pos="0.20" length="14.71" friendlyPos="1"/>
    </busStop>
    <busStop id="-3222963807" name="Esslingen-Mettingen" lane="-1086171355_0" startPos="193.06" endPos="393.06" friendlyPos="true">
        <access lane="23171655#2_0" pos="1.15" length="12.35" friendlyPos="1"/>
        <access lane="303756894_0" pos="4.87" length="8.25" friendlyPos="1"/>
        <access lane="303756902_0" pos="0.20" length="8.26" friendlyPos="1"/>
        <access lane="303756905#0_0" pos="2.18" length="12.27" friendlyPos="1"/>
        <access lane="303756905#1_0" pos="1.96" length="3.19" friendlyPos="1"/>
    </busStop>
    <busStop id="-3566577209" name="Esslingen (N) ZOB" lane="-392441930_0" startPos="38.03" endPos="53.03" friendlyPos="true" lines="122 105 110"/>
    <busStop id="-3566577210" name="Esslingen (N) ZOB" lane="-386500268#0_0" startPos="0.00" endPos="15.00" friendlyPos="true" lines="108"/>
    <busStop id="-3872480830" name="Mettingen Bahnhof (Trollingerweg)" lane="-383983728_0" startPos="4.33" endPos="19.33" friendlyPos="true" lines="115"/>
    <busStop id="-3872841443" name="Pliensauturm" lane="-350217704#2_0" startPos="45.44" endPos="60.44" friendlyPos="true" lines="131 140 130 N22"/>
    <busStop id="-3872841444" name="Schelztor" lane="-386832703#0_0" startPos="0.00" endPos="15.20" friendlyPos="true" lines="108 122 105 110"/>
    <busStop id="-3898445264" name="Georgii-Waldstadion" lane="-386500264#10_0" startPos="0.00" endPos="15.00" friendlyPos="true" lines="112"/>
    <busStop id="-3904477592" name="Sulzgries Zentrum" lane="-24508781#3_0" startPos="0.00" endPos="15.00" friendlyPos="true" lines="109 132"/>
    <busStop id="-3904767704" name="Herrenwiesenweg" lane="-387155257#0_0" startPos="0.00" endPos="15.00" friendlyPos="true" lines="111"/>
    <busStop id="-3968318269" name="Parksiedlung Parkstraße" lane="-158355468#1_0" startPos="0.34" endPos="15.34" friendlyPos="true" lines="131 130"/>
    <busStop id="-6262815029" name="Parksiedlung Robert-Koch-Straße" lane="-231875715#2_0" startPos="41.81" endPos="56.81" friendlyPos="true" lines="122"/>
    <busStop id="-6501810816" name="Esslingen (N) ZOB" lane="-386500268#0_0" startPos="29.65" endPos="44.65" friendlyPos="true" lines="109"/>
    <busStop id="-6515317538" name="Pliensauturm" lane="-350217704#3_0" startPos="1.39" endPos="16.39" friendlyPos="true" lines="111 112 113"/>
    <busStop id="-6515317595" name="Pliensauturm" lane="-350217704#2_0" startPos="0.00" endPos="15.00" friendlyPos="true" lines="114 106 104"/>
    <busStop id="-89023451" name="Oberer Eisbergweg" lane="-926867314_0" startPos="201.52" endPos="216.52" friendlyPos="true" lines="119 120"/>
    <busStop id="1037937586" name="Panorama-Klinik" lane="169127813#4_0" startPos="90.63" endPos="105.63" friendlyPos="true"/>
    <busStop id="10814468128" name="Gartenstadt" lane="37177743#1_0" startPos="5.73" endPos="20.73" friendlyPos="true"/>
    <busStop id="109597051" name="Bärenwiesen" lane="34424782#2_0" startPos="37.31" endPos="52.31" friendlyPos="true"/>
    <busStop id="109597336" name="Brunnen" lane="560583353#2_0" startPos="0.00" endPos="8.43" friendlyPos="true"/>
    <busStop id="1104997093" name="Katharinenstaffel" lane="8812305#1_0" startPos="0.00" endPos="15.20" friendlyPos="true"/>
    <busStop id="113591455" name="Ruit" lane="12815133_0" startPos="1805.84" endPos="2005.84" friendlyPos="true" lines="U8 U7"/>
    <busStop id="1187477995" name="Altbach" lane="180784454#2_0" startPos="2102.56" endPos="2302.56" friendlyPos="true" lines="S1"/>
    <busStop id="1187534664" name="Oberesslingen" lane="292876199#4_0" startPos="1319.25" endPos="1519.25" friendlyPos="true" lines="S1">
        <access lane="408015643_0" pos="0.00" length="5.36" friendlyPos="1"/>
        <access lane="408015645_0" pos="3.99" length="8.84" friendlyPos="1"/>
        <access lane="412718967_0" pos="2.53" length="12.04" friendlyPos="1"/>
        <access lane="412718976_0" pos="0.00" length="11.26" friendlyPos="1"/>
        <access lane="694116145_0" pos="2.13" length="9.58" friendlyPos="1"/>
    </busStop>
    <busStop id="1187534737" name="Oberesslingen" lane="180784448#1_0" startPos="896.73" endPos="1096.73" friendlyPos="true">
        <access lane="407997542#1_0" pos="1.49" length="1.40" friendlyPos="1"/>
        <access lane="412718973#0_0" pos="0.00" length="10.50" friendlyPos="1"/>
        <access lane="694116185_0" pos="1.89" length="7.19" friendlyPos="1"/>
        <access lane="694116186_0" pos="1.33" length="8.91" friendlyPos="1"/>
        <access lane="694116189_0" pos="0.20" length="7.54" friendlyPos="1"/>
    </busStop>
    <busStop id="1187584519" name="Esslingen (Neckar)" lane="102807168#2_0" startPos="428.56" endPos="628.56" friendlyPos="true">
        <access lane="303780045_0" pos="0.00" length="17.98" friendlyPos="1"/>
        <access lane="303780047_0" pos="0.00" length="17.02" friendlyPos="1"/>
        <access lane="303780069#0_0" pos="0.00" length="15.54" friendlyPos="1"/>
        <access lane="303780071#0_0" pos="0.54" length="18.57" friendlyPos="1"/>
        <access lane="303780071#1_0" pos="3.69" length="11.08" friendlyPos="1"/>
    </busStop>
    <busStop id="1187584571" name="Esslingen (Neckar)" lane="102848495#4_0" startPos="91.36" endPos="291.36" friendlyPos="true" lines="S1">
        <access lane="1035471373_0" pos="37.22" length="24.78" friendlyPos="1"/>
        <access lane="303780041_0" pos="6.47" length="28.07" friendlyPos="1"/>
        <access lane="303780045_0" pos="0.00" length="25.71" friendlyPos="1"/>
        <access lane="303780069#0_0" pos="0.20" length="25.06" friendlyPos="1"/>
        <access lane="303780069#1_0" pos="2.60" length="22.38" friendlyPos="1"/>
    </busStop>
    <busStop id="1187584623" name="Esslingen (Neckar)" lane="156199090_0" startPos="20.11" endPos="220.11" friendlyPos="true">
        <access lane="303780047_0" pos="0.00" length="17.43" friendlyPos="1"/>
        <access lane="303780061#1_0" pos="3.41" length="21.00" friendlyPos="1"/>
        <access lane="303780063_0" pos="6.61" length="19.57" friendlyPos="1"/>
        <access lane="303780071#0_0" pos="0.00" length="13.86" friendlyPos="1"/>
        <access lane="303780071#1_0" pos="0.00" length="18.18" friendlyPos="1"/>
    </busStop>
    <busStop id="1219607437" name="Charlottenplatz" lane="4807837#2_0" startPos="11.54" endPos="26.54" friendlyPos="true"/>
    <busStop id="1219607507" name="Merkel&apos;sches Bad" lane="54883018#1_0" startPos="22.26" endPos="37.26" friendlyPos="true"/>
    <busStop id="1219607569" name="Steinhalde" lane="387296014#1_0" startPos="11.90" endPos="26.90" friendlyPos="true"/>
    <busStop id="1219607572" name="Merkel&apos;sches Bad" lane="387401256#1_0" startPos="0.00" endPos="15.00" friendlyPos="true" lines="114"/>
    <busStop id="125392606" name="Panorama-Klinik" lane="169127813#4_0" startPos="295.29" endPos="310.29" friendlyPos="true"/>
    <busStop id="125392608" name="Burg" lane="537710741#3_0" startPos="36.02" endPos="51.02" friendlyPos="true"/>
    <busStop id="125392611" name="Hohenkreuz" lane="12098782#4_0" startPos="21.63" endPos="36.63" friendlyPos="true"/>
    <busStop id="125392612" name="Wäldenbronn Kreuzung" lane="25214142#0_0" startPos="0.00" endPos="15.00" friendlyPos="true"/>
    <busStop id="125392617" name="Wäldenbronn Kreuzung" lane="12099349_0" startPos="25.26" endPos="40.26" friendlyPos="true"/>
    <busStop id="125392619" name="Langer Weg" lane="560583354_0" startPos="1.22" endPos="16.22" friendlyPos="true"/>
    <busStop id="1786518020" name="Wannenrain" lane="4066943#3_0" startPos="64.96" endPos="79.96" friendlyPos="true" lines="103"/>
    <busStop id="1867109237" name="Eichendorffschule" lane="400416445#1_0" startPos="30.61" endPos="45.61" friendlyPos="true"/>
    <busStop id="1911101330" name="Weilstraße" lane="22910600_0" startPos="0.00" endPos="15.00" friendlyPos="true"/>
    <busStop id="1920592400" name="Alte Steige" lane="31133710_0" startPos="292.43" endPos="307.43" friendlyPos="true"/>
    <busStop id="1934095626" name="Oberesslingen Bahnhof (Nord)" lane="921020467#2_0" startPos="34.49" endPos="49.49" friendlyPos="true"/>
    <busStop id="1967351665" name="Flandernstraße" lane="186037699#0_0" startPos="18.90" endPos="33.90" friendlyPos="true" lines="X20"/>
    <busStop id="2100381832" name="Schulzentrum Nord" lane="12099342#1_0" startPos="98.01" endPos="113.01" friendlyPos="true"/>
    <busStop id="2100381840" name="Seracher Straße" lane="552812219_0" startPos="32.70" endPos="47.70" friendlyPos="true"/>
    <busStop id="2102263746" name="Sulzgrieser Steige" lane="23316365_0" startPos="94.76" endPos="109.76" friendlyPos="true"/>
    <busStop id="2118718025" name="Anna-Schieber-Weg" lane="385405409#0_0" startPos="22.05" endPos="37.05" friendlyPos="true"/>
    <busStop id="2125467401" name="Wäldenbronn Kreuzung" lane="12098881#5_0" startPos="7.12" endPos="22.12" friendlyPos="true"/>
    <busStop id="2125467407" name="Wäldenbronn Kreuzung" lane="12098881#3_0" startPos="0.00" endPos="15.00" friendlyPos="true"/>
    <busStop id="2128183646" name="Kirchackerstraße" lane="205275738#0_0" startPos="9.04" endPos="24.04" friendlyPos="true"/>
    <busStop id="2128184468" name="Langer Weg" lane="560583354_0" startPos="13.38" endPos="28.38" friendlyPos="true"/>
    <busStop id="2157925673" name="Ebene" lane="387296028#0_0" startPos="15.24" endPos="30.24" friendlyPos="true"/>
    <busStop id="2161952456" name="Bergstraße" lane="31157172#4_0" startPos="11.86" endPos="26.86" friendlyPos="true"/>
    <busStop id="2164671068" name="Maienwalterstraße" lane="24508781#0_0" startPos="0.00" endPos="15.00" friendlyPos="true"/>
    <busStop id="2166264937" name="Maienwalterstraße" lane="1035471357#0_0" startPos="4.26" endPos="19.26" friendlyPos="true"/>
    <busStop id="2168117768" name="Krummenacker" lane="387155261#0_0" startPos="35.25" endPos="50.25" friendlyPos="true"/>
    <busStop id="2191707682" name="Sulzgries Zentrum" lane="558323894_0" startPos="112.99" endPos="127.99" friendlyPos="true"/>
    <busStop id="2239070180" name="Waldackerweg" lane="412792789#3_0" startPos="0.00" endPos="0.30" friendlyPos="true" lines="112"/>
    <busStop id="2426004802" name="Zollberg" lane="21310559_0" startPos="76.64" endPos="91.64" friendlyPos="true" lines="119 120"/>
    <busStop id="245016532" name="Schillerplatz" lane="24511285#2_0" startPos="5.69" endPos="20.69" friendlyPos="true"/>
    <busStop id="245017149" name="Oberesslingen Bahnhof (Süd)" lane="27531049#6_0" startPos="0.78" endPos="15.78" friendlyPos="true" lines="121"/>
    <busStop id="247224583" name="Realschule" lane="448974987#2_0" startPos="11.90" endPos="26.90" friendlyPos="true" lines="113"/>
    <busStop id="248493257" name="Pfeifferklinge" lane="432904401_0" startPos="63.04" endPos="78.04" friendlyPos="true"/>
    <busStop id="248493258" name="Pfeifferklinge" lane="432904401_0" startPos="83.65" endPos="98.65" friendlyPos="true"/>
    <busStop id="248825001" name="Theodor-Heuss-Gymnasium" lane="23059671#0_0" startPos="33.85" endPos="48.85" friendlyPos="true"/>
    <busStop id="250417875" name="Waldackerweg" lane="412792789#2_0" startPos="152.94" endPos="167.94" friendlyPos="true"/>
    <busStop id="254785746" name="Kennenburg" lane="281956707_0" startPos="198.61" endPos="213.61" friendlyPos="true"/>
    <busStop id="254785763" name="Kohlerweg" lane="387212679#1_0" startPos="338.74" endPos="353.74" friendlyPos="true"/>
    <busStop id="254785773" name="Anhäuserstraße" lane="37181832#2_0" startPos="0.00" endPos="12.78" friendlyPos="true"/>
    <busStop id="254785848" name="Kennenburg" lane="23528330#0_0" startPos="14.95" endPos="29.95" friendlyPos="true"/>
    <busStop id="254785865" name="Geriatrisches Zentrum" lane="386500262#0_0" startPos="0.00" endPos="0.20" friendlyPos="true"/>
    <busStop id="2611247039" name="Ebershaldenfriedhof" lane="23439978#1_0" startPos="0.41" endPos="15.41" friendlyPos="true"/>
    <busStop id="2626499005" name="Charlottenplatz" lane="4807837#1_0" startPos="18.28" endPos="33.28" friendlyPos="true" lines="114"/>
    <busStop id="263337116" name="Stuttgart-Obertürkheim" lane="292876200#1_0" startPos="110.18" endPos="310.18" friendlyPos="true" lines="S1">
        <access lane="-344566273#0_0" pos="313.95" length="218.38" friendlyPos="1"/>
        <access lane="-461133489_0" pos="0.00" length="14.72" friendlyPos="1"/>
        <access lane="340187481#1_0" pos="571.86" length="11.91" friendlyPos="1"/>
        <access lane="344566273#0_0" pos="75.95" length="221.38" friendlyPos="1"/>
        <access lane="431444821#4_0" pos="257.63" length="180.50" friendlyPos="1"/>
    </busStop>
    <busStop id="263337125" name="Esslingen-Mettingen" lane="292876202#1_0" startPos="173.34" endPos="373.34" friendlyPos="true" lines="S1">
        <access lane="23171654_0" pos="11.45" length="5.33" friendlyPos="1"/>
        <access lane="303756895_0" pos="5.36" length="11.73" friendlyPos="1"/>
        <access lane="303756908#0_0" pos="0.00" length="11.46" friendlyPos="1"/>
        <access lane="393161161_0" pos="0.00" length="10.69" friendlyPos="1"/>
        <access lane="393161162#0_0" pos="0.00" length="5.07" friendlyPos="1"/>
    </busStop>
    <busStop id="263337141" name="Esslingen (Neckar)" lane="445470518_0" startPos="65.37" endPos="265.37" friendlyPos="true" lines="S1">
        <access lane="303780041_0" pos="6.47" length="17.00" friendlyPos="1"/>
        <access lane="303780045_0" pos="0.00" length="14.68" friendlyPos="1"/>
        <access lane="303780069#0_0" pos="0.00" length="12.57" friendlyPos="1"/>
        <access lane="303780069#1_0" pos="0.00" length="15.41" friendlyPos="1"/>
        <access lane="303780071#1_0" pos="3.69" length="15.23" friendlyPos="1"/>
    </busStop>
    <busStop id="263337147" name="Oberesslingen" lane="123444522#4_0" startPos="845.08" endPos="1045.08" friendlyPos="true" lines="S1">
        <access lane="407997542#1_0" pos="1.49" length="8.84" friendlyPos="1"/>
        <access lane="408015645_0" pos="0.00" length="8.84" friendlyPos="1"/>
        <access lane="412718973#0_0" pos="0.00" length="2.29" friendlyPos="1"/>
        <access lane="412718973#1_0" pos="0.00" length="9.22" friendlyPos="1"/>
        <access lane="412718976_0" pos="0.20" length="9.73" friendlyPos="1"/>
    </busStop>
    <busStop id="2637351415" name="Hochschule" lane="220151070#0_0" startPos="51.72" endPos="66.72" friendlyPos="true"/>
    <busStop id="2649951212" name="Schlachthausbrücke" lane="37181839#1_0" startPos="0.00" endPos="7.18" friendlyPos="true"/>
    <busStop id="2661523902" name="Esslingen (Neckar)" lane="156199094#3_0" startPos="71.17" endPos="271.17" friendlyPos="true" lines="RE 5">
        <access lane="303780035_0" pos="0.00" length="10.42" friendlyPos="1"/>
        <access lane="303780042_0" pos="6.66" length="10.74" friendlyPos="1"/>
        <access lane="303780056_0" pos="0.86" length="16.35" friendlyPos="1"/>
        <access lane="303780061#0_0" pos="0.11" length="14.03" friendlyPos="1"/>
        <access lane="303780061#1_0" pos="3.41" length="1.68" friendlyPos="1"/>
    </busStop>
    <busStop id="2665707504" name="Paracelsusstraße (Klinikum Esslingen)" lane="8026683#4_0" startPos="28.55" endPos="43.55" friendlyPos="true"/>
    <busStop id="2681465401" name="Klinikum Esslingen" lane="9515416#3_0" startPos="25.15" endPos="40.15" friendlyPos="true"/>
    <busStop id="2681465546" name="Hirschlandstraße" lane="281956701#2_0" startPos="60.84" endPos="75.84" friendlyPos="true"/>
    <busStop id="2681465554" name="Hirschlandstraße" lane="281956701#2_0" startPos="105.42" endPos="120.42" friendlyPos="true"/>
    <busStop id="2690529094" name="Kreuzstraße" lane="281956705#0_0" startPos="26.16" endPos="41.16" friendlyPos="true"/>
    <busStop id="2691822202" name="Hofstraße" lane="23724224#0_0" startPos="3.34" endPos="18.34" friendlyPos="true"/>
    <busStop id="270196725" name="Parksiedlung" lane="12815133_0" startPos="250.87" endPos="450.87" friendlyPos="true" lines="U8 U7">
        <access lane="-148844986_0" pos="0.00" length="189.13" friendlyPos="1"/>
        <access lane="-29701092#0_0" pos="33.50" length="188.52" friendlyPos="1"/>
        <access lane="148844984#0_0" pos="0.00" length="188.27" friendlyPos="1"/>
        <access lane="23285078#11_0" pos="44.07" length="168.68" friendlyPos="1"/>
        <access lane="29701032#0_0" pos="0.00" length="186.51" friendlyPos="1"/>
    </busStop>
    <busStop id="270599198" name="Ruit Zinsholz" lane="12815133_0" startPos="997.53" endPos="1197.53" friendlyPos="true" lines="U8 U7">
        <access lane="-573703452_0" pos="159.28" length="19.60" friendlyPos="1"/>
        <access lane="-70531948#3_0" pos="62.95" length="23.30" friendlyPos="1"/>
        <access lane="231875720#4_0" pos="70.25" length="14.80" friendlyPos="1"/>
        <access lane="25808659#1_0" pos="20.10" length="51.01" friendlyPos="1"/>
        <access lane="70531948#3_0" pos="167.77" length="26.30" friendlyPos="1"/>
    </busStop>
    <busStop id="2711169196" name="Im Holder" lane="686955221_0" startPos="23.35" endPos="38.35" friendlyPos="true" lines="119 120 118 N19"/>
    <busStop id="2730173334" name="Zimmerbachstraße" lane="25973409#1_0" startPos="9.73" endPos="24.73" friendlyPos="true"/>
    <busStop id="2739052081" name="Esslingen (N) ZOB" lane="384972991#1_0" startPos="7.76" endPos="22.76" friendlyPos="true" lines="114 106 120 N22"/>
    <busStop id="27413246" name="Anna-Schieber-Weg" lane="281956714_0" startPos="31.76" endPos="46.76" friendlyPos="true"/>
    <busStop id="27413254" name="Katharinenstaffel" lane="787951054_0" startPos="339.50" endPos="354.50" friendlyPos="true"/>
    <busStop id="27413262" name="Hochschule" lane="4807784#1_0" startPos="71.05" endPos="86.05" friendlyPos="true"/>
    <busStop id="27413881" name="Finanzamt" lane="4807782#2_0" startPos="0.00" endPos="15.00" friendlyPos="true"/>
    <busStop id="2789521448" name="Hochschulzentrum" lane="185953704#0_0" startPos="73.59" endPos="88.59" friendlyPos="true"/>
    <busStop id="2789521449" name="Hochschulzentrum" lane="185953704#0_0" startPos="64.77" endPos="79.77" friendlyPos="true"/>
    <busStop id="2842711500" name="Alte Talstraße" lane="280092647_0" startPos="22.86" endPos="37.86" friendlyPos="true"/>
    <busStop id="2842712101" name="Alte Talstraße" lane="280092644_0" startPos="15.24" endPos="30.24" friendlyPos="true"/>
    <busStop id="2842712174" name="Talstraße" lane="280092655_0" startPos="14.29" endPos="29.29" friendlyPos="true"/>
    <busStop id="2842712181" name="Talstraße" lane="280092652#0_0" startPos="6.64" endPos="21.64" friendlyPos="true"/>
    <busStop id="2849690655" name="Kriegerdenkmal" lane="23724230#3_0" startPos="10.35" endPos="25.35" friendlyPos="true"/>
    <busStop id="2859168238" name="Hirschlandhof" lane="281956703_0" startPos="0.00" endPos="15.00" friendlyPos="true"/>
    <busStop id="2869390055" name="Gartenstadt" lane="37177743#1_0" startPos="0.00" endPos="15.00" friendlyPos="true"/>
    <busStop id="2869390122" name="Weiherstraße" lane="283020993#1_0" startPos="42.41" endPos="57.41" friendlyPos="true" lines="102 103"/>
    <busStop id="2869406244" name="Weiherstraße" lane="283020993#1_0" startPos="47.34" endPos="62.34" friendlyPos="true"/>