<?xml version="1.0" encoding="UTF-8"?>

<!-- generated on 2023-07-06 18:02:41.249876 by osmWebWizard.py v1_16_0+0000-94ec4c6cd72
  options: 
-->

<routes xmlns:xsi="http://www.w3.org/2001/XMLSchema-instance" xsi:noNamespaceSchemaLocation="http://sumo.dlr.de/xsd/routes_file.xsd">
    <vType id="pt_bus" vClass="bus"/>
    <vType id="pt_tram" vClass="tram"/>
    <vType id="pt_train" vClass="rail"/>
    <vType id="pt_subway" vClass="rail_urban"/>
    <vType id="pt_light_rail" vClass="rail_urban"/>
    <vType id="pt_monorail" vClass="rail_urban"/>
    <vType id="pt_trolleybus" vClass="bus"/>
    <vType id="pt_minibus" vClass="bus"/>
    <vType id="pt_share_taxi" vClass="taxi"/>
    <vType id="pt_aerialway" vClass="rail_urban" length="2.5" width="2" personCapacity="4"/>
    <vType id="pt_ferry" vClass="ship"/>
    <route id="pt_light_rail_U8:0" color="195,180,125" edges="12815133" >
        <stop busStop="270196725" duration="20" until="61.0"/> <!-- Parksiedlung -->
        <stop busStop="270599198" duration="20" until="136.0"/> <!-- Ruit Zinsholz -->
        <stop busStop="113591455" duration="20" until="213.0"/> <!-- Ruit -->
    </route>
    <route id="pt_light_rail_U8:1" color="195,180,125" edges="26946520 26946517#1" >
        <stop busStop="295255872" duration="20" until="53.0"/> <!-- Ruit -->
        <stop busStop="295255894" duration="20" until="128.0"/> <!-- Ruit Zinsholz -->
        <stop busStop="295255933" duration="20" until="205.0"/> <!-- Parksiedlung -->
    </route>
    <route id="pt_light_rail_U7:0" color="14,180,141" edges="12815133" >
        <stop busStop="270196725" duration="20" until="65.0"/> <!-- Parksiedlung -->
        <stop busStop="270599198" duration="20" until="141.0"/> <!-- Ruit Zinsholz -->
        <stop busStop="113591455" duration="20" until="219.0"/> <!-- Ruit -->
    </route>
    <route id="pt_light_rail_U7:1" color="14,180,141" edges="26946520 26946517#1" >
        <stop busStop="295255872" duration="20"/> <!-- Ruit -->
        <stop busStop="295255894" duration="20"/> <!-- Ruit Zinsholz -->
        <stop busStop="295255933" duration="20"/> <!-- Parksiedlung -->
    </route>
    <route id="pt_bus_121:0" color="51,92,113">
        <stop busStop="245017149" duration="20"/> <!-- Oberesslingen Bahnhof (Süd) -->
        <stop busStop="3883265541" duration="20"/> <!-- Schwertmühle -->
        <stop busStop="3883265532" duration="20"/> <!-- Max-Planck-Straße -->
    </route>
    <route id="pt_bus_119:0" color="0,101,183">
        <stop busStop="3566577206" duration="20"/> <!-- Esslingen (N) ZOB -->
        <stop busStop="30863641" duration="20"/>
        <stop busStop="3933810892" duration="20"/> <!-- Weilstraße -->
        <stop busStop="2711169196" duration="20"/> <!-- Im Holder -->
        <stop busStop="464733846" duration="20"/>
        <stop busStop="2426004802" duration="20"/>
        <stop busStop="66731754" duration="20"/>
    </route>
    <route id="pt_train_RE_5:0" edges="248760538#0 248760538#1 248760538#2 248760538#3 248760538#4 180784434#1 156199094#1 156199094#2 156199094#3 102848475#1 102848507#0 102848507#1 460942121#0 460942121#1 25423242#1 85959749#1 68906765 70395557#1 48316096#1 48316096#2" >
        <stop busStop="2661523902" duration="20" until="273.0"/> <!-- Esslingen (Neckar) -->
        <stop busStop="3068257018" duration="20" until="494.0"/> <!-- Stuttgart-Obertürkheim -->
    </route>
    <route id="pt_bus_121:1" color="51,92,113">
        <stop busStop="3883265532" duration="20" /> <!-- Max-Planck-Straße -->
        <stop busStop="3883265541" duration="20" /> <!-- Schwertmühle -->
        <stop busStop="245017149" duration="20"/> <!-- Oberesslingen Bahnhof (Süd) -->
    </route>
    <route id="pt_bus_109:1" color="93,203,177">
        <stop busStop="-3904477592" duration="20"/> <!-- Sulzgries Zentrum -->
        <stop busStop="3904477579" duration="20"/>
        <stop busStop="2102263746" duration="20"/>
        <stop busStop="-3872841444" duration="20"/>
        <stop busStop="-3566577210" duration="20"/>
    </route>
    <route id="pt_bus_109:0" color="93,203,177">
        <stop busStop="-6501810816" duration="20"/> <!-- Esslingen (N) ZOB -->
        <stop busStop="-2648044989" duration="20"/> <!-- Schelztor -->
        <stop busStop="3904477589" duration="20"/>
        <stop busStop="2157925673" duration="20"/>
        <stop busStop="2168117768" duration="20"/>
        <stop busStop="2191707682" duration="20"/>
    </route>
    <route id="pt_bus_105:1" color="12,136,68">
        <stop busStop="-3566577209" duration="20"/> <!-- Esslingen (N) ZOB -->
        <stop busStop="-3872841444" duration="20"/> <!-- Schelztor -->
        <stop busStop="3872841439" duration="20"/>
        <stop busStop="1104997093" duration="20"/>
        <stop busStop="2859168238" duration="20"/>
        <stop busStop="2681465401" duration="20"/>
        <stop busStop="2789521448" duration="20"/>
        <stop busStop="3887517744" duration="20"/>
        <stop busStop="6327610134" duration="20"/>
    </route>
    <route id="pt_bus_122:0" color="200,185,123">
        <stop busStop="-3566577209" duration="20"/> <!-- Esslingen (N) ZOB -->
        <stop busStop="-3872841444" duration="20"/> <!-- Schelztor -->
        <stop busStop="3872841439" duration="20"/>
        <stop busStop="2637351415" duration="20"/>
        <stop busStop="1911101330" duration="20"/>
        <stop busStop="248493257" duration="20"/>
        <stop busStop="3966025662" duration="20"/>
        <stop busStop="3966025661" duration="20"/>
        <stop busStop="-6262815029" duration="20"/>
    </route>
    <route id="pt_bus_102:2" color="227,207,59">
        <stop busStop="3872841448" duration="20"/> <!-- Weil -->
        <stop busStop="3872841437" duration="20"/>
        <stop busStop="3213014421" duration="20"/>
        <stop busStop="3872841447" duration="20"/>
        <stop busStop="3872480834" duration="20"/>
        <stop busStop="3872480832" duration="20"/>
        <stop busStop="3872841420" duration="20"/>
        <stop busStop="3872480825" duration="20"/>
        <stop busStop="-3872480830" duration="20"/>
    </route>
    <route id="pt_bus_138:0" color="200,43,64">
        <stop busStop="29027118" duration="20"/> <!-- Alte Steige -->
        <stop busStop="3898445272" duration="20"/>
        <stop busStop="3898445268" duration="20"/>
        <stop busStop="2849690655" duration="20"/>
        <stop busStop="29027196" duration="20"/>
        <stop busStop="-280307039" duration="20"/>
        <stop busStop="2869390122" duration="20"/>
        <stop busStop="2730173334" duration="20"/>
        <stop busStop="-2869007744" duration="20"/>
    </route>
    <route id="pt_bus_104:2" color="211,157,112">
        <stop busStop="3883265532" duration="20"/>
        <stop busStop="3883265541" duration="20"/>
        <stop busStop="287465536" duration="20"/>
        <stop busStop="3872841440" duration="20"/>
        <stop busStop="3933810887" duration="20"/>
        <stop busStop="3566577208" duration="20"/>
    </route>
    <route id="pt_bus_104:3" color="211,157,112">
        <stop busStop="3883265532" duration="20"/> <!-- Max-Planck-Straße -->
        <stop busStop="3883265541" duration="20"/>
        <stop busStop="245017149" duration="20"/>
        <stop busStop="3872841439" duration="20"/>
        <stop busStop="245016532" duration="20"/>
        <stop busStop="3566577208" duration="20"/>
    </route>
    <route id="pt_bus_110:1" color="251,49,153">
        <stop busStop="-109597420" duration="20"/> <!-- Brückle -->
        <stop busStop="109597336" duration="20"/>
        <stop busStop="125392619" duration="20"/>
        <stop busStop="125392612" duration="20"/>
        <stop busStop="125392611" duration="20"/>
        <stop busStop="125392608" duration="20"/>
        <stop busStop="1037937586" duration="20"/>
        <stop busStop="1104997093" duration="20"/>
        <stop busStop="3872841439" duration="20"/>
        <stop busStop="-3872841444" duration="20"/>
        <stop busStop="-3566577209" duration="20"/>
    </route>
    <route id="pt_bus_108:0" color="104,102,181">
        <stop busStop="-3566577210" duration="20"/> <!-- Esslingen (N) ZOB -->
        <stop busStop="-3872841444" duration="20"/> <!-- Schelztor -->
        <stop busStop="3872841439" duration="20"/>
        <stop busStop="1104997093" duration="20"/>
        <stop busStop="2859168238" duration="20"/>
        <stop busStop="254785763" duration="20"/>
        <stop busStop="254785773" duration="20"/>
        <stop busStop="2849690655" duration="20"/>
        <stop busStop="3898445268" duration="20"/>
        <stop busStop="29027150" duration="20"/>
        <stop busStop="1920592400" duration="20"/>
        <stop busStop="1920592400" duration="20"/>
    </route>
    <route id="pt_trolleybus_118:0" color="193,98,53" edges="-926867318 -345736606 -265450242 -23182939 -926867322 -265461454 345736599 1157387459#0 11335855#0 11335855#1 265461445#0 169097422 265461443 345736597 345736596 423481788#0 423481788#1 220150011#0 220150011#1 423481777-AddedOnRampEdge 423481777 265461451 23205595 350147738 10492734#0 10492734#1 17096026 156260261 138203611#0 138203611#1 163737798 182055123#0 182055123#1 1157387449#0 1157387449#1 1157387455 1157387457 31787956 911970184 911970185 939228251 178668745 146911733 316354392 675777502 -675777502 -316354392 -146911733 -468914851 4811517 26738365#0 26738365#1 265461450 423481774#0 423481774#1 220150010 10492736 345736590 345736590-AddedOffRampEdge 345736580 180667064#0 345736584 265461444#0 692610294 1157387458 345736587#0 345736587#1 30998717#0 11335846#1 926867325 345736604 926867324 265461454 926867322 23182939 265450242 345736606 686955221 345736600 -345736598" >
        <stop busStop="3224629436" duration="20" until="372.0"/> <!-- Esslingen (N) ZOB -->
        <stop busStop="3933810892" duration="20" until="600.0"/> <!-- Weilstraße -->
        <stop busStop="2711169196" duration="20" until="692.0"/> <!-- Im Holder -->
    </route>
    <route id="pt_bus_104:0" color="211,157,112" >
        <stop busStop="3566577208" duration="20" /> <!-- Esslingen (N) ZOB -->
        <stop busStop="3933810887" duration="20"/>
        <stop busStop="3872841440" duration="20"/>
        <stop busStop="287465536" duration="20"/>
        <stop busStop="3883265541" duration="20"/>
        <stop busStop="6537655109" duration="20"/>
    </route>
    <route id="pt_bus_111:1" color="255,181,48" edges="-387155257#0 -23471056#3 -23471056#2 -23471056#1 -23471056#0 688229195 553076445#1 553076445#2 31157172#1 31157172#2 23275131#0 23275131#1 23275131#2 23275131#3 184749081#0 184749081#2 184749081#3 184749081#4 23463903#0 23463903#1 -1035471353 -199665487#0 -592426952 766727735 159822900 1168323015#1 1168323014 94166210#0 94166210#1 386832701#0 386832701#1 442274134 386832702 -378237356 -23316466 442274132 442274138 386832703#0 386832703#1 135078201 -283413806 -316354387#0 156260258 386500268#1 -392441930" >
        <stop busStop="-3904767704" duration="20" until="34.0"/> <!-- Herrenwiesenweg -->
    </route>
    <route id="pt_bus_102:3" color="227,207,59">
        <stop busStop="3872841448" duration="20"/> <!-- Weil -->
        <stop busStop="3872841437" duration="20"/>
        <stop busStop="3872841427" duration="20"/>
        <stop busStop="1786518020" duration="20"/>
        <stop busStop="3872480834" duration="20"/>
        <stop busStop="3872480832" duration="20"/>
        <stop busStop="3872841420" duration="20"/>
        <stop busStop="3872480827" duration="20"/>
        <stop busStop="2939873614" duration="20"/>
    </route>
    <route id="pt_train_S1:0" color="92,142,60" edges="292876200#0 292876200#1 68908209#0 68908209#1 292876202#0 292876202#1 454381995 102807136#1 102807136#2 102848495#1 102848495#2 102848495#3 102848495#4 454381994#1 292876199#0 292876199#1 292876199#2 292876199#3 292876199#4 180784454#1 180784454#2 180784454#3" >
        <stop busStop="263337116" duration="20" until="105.0"/> <!-- Stuttgart-Obertürkheim -->
        <stop busStop="263337125" duration="20" until="263.0"/> <!-- Esslingen-Mettingen -->
        <stop busStop="1187584571" duration="20" until="435.0"/> <!-- Esslingen (Neckar) -->
        <stop busStop="1187534664" duration="20" until="609.0"/> <!-- Oberesslingen -->
        <stop busStop="3082151227" duration="20" until="793.0"/> <!-- Esslingen-Zell -->
        <stop busStop="1187477995" duration="20" until="955.0"/> <!-- Altbach -->
    </route>
    <route id="pt_bus_114:0" color="187,148,184">
        <stop busStop="2739052081" duration="20" until="38.0"/> <!-- Esslingen (N) ZOB -->
        <stop busStop="-1254192526" duration="20" until="371.0"/> <!-- Pliensauturm -->
        <stop busStop="1219607572" duration="20" until="485.0"/> <!-- Merkel'sches Bad -->
        <stop busStop="2626499005" duration="20" until="612.0"/> <!-- Charlottenplatz -->
    </route>
    <route id="pt_bus_131:0" color="248,60,90" edges="675777502 675777502 -350217704#2 -231875720#0" >
        <stop busStop="3224629436" duration="20" until="33.0"/> <!-- Esslingen (N) ZOB -->
        <stop busStop="-3872841443" duration="20" until="688.0"/> <!-- Pliensauturm -->
    </route>
    <route id="pt_bus_102:5" color="227,207,59">
        <stop busStop="3872841448" duration="20"/> <!-- Weil -->
        <stop busStop="3872841437" duration="20"/>
        <stop busStop="3872841427" duration="20"/>
        <stop busStop="1786518020" duration="20"/>
        <stop busStop="3872480834" duration="20"/>
        <stop busStop="3872480832" duration="20"/>
        <stop busStop="3872841420" duration="20"/>
        <stop busStop="3872480827" duration="20"/>
        <stop busStop="2939873614" duration="20"/>
    </route>
    <route id="pt_bus_102:0" color="227,207,59" edges="25576460#0 25576460#1 -23439929#6 -23439929#5 -23439929#4 -23439929#3 -23439929#2 -23439929#0 -23439923 37177743#0 37177743#1 37177743#2 391001058 387401249#1 387401249#2 283020993#1 283020993#2 283020993#3 283020993#4 -25973409#3 -25973409#2 -25973409#1 -25973409#0 -1180261355 -1180261351 -4811464 4807776#0 4807776#1 758088375#0 -183049933#0 -1164287131#2 -1164287131#0 38361907 183419043#0 183419043#1 183419043#2 183419042#0 183419042#1 183419042#2 183419042#3 183419042#4 183419042#6 183419042#8 183419042#9 183419042#10 183419042#11 273990570 273990571#0 273990571#1 273990571#2 273990571#3 273990571#4 273990571#5 273990571#6 4811453#1 4811453#2 4811453#3 4811453#4 4811453#5 4811453#6 4811453#7 -275526211 -4807837#2 -4807837#1 -4807837#0 -54883018#3 -54883018#2 -54883018#1 -178668743 -202630135 -387401256#1 -290577631 1157387454#0 1157387454#1 138203609#0 138203610 387155262 156260255#0 156260255#1 156260255#2 156260255#3 138203607 4807840 26738365#0 26738365#1 8080009 423481795#1 345736610#1 133487398#1 346002998 346002984 243261562 613391027 383945638 261543545 261543549#0 261543534 24447630 4067008 176337394 261543542 261543555 24994574#0 24994574#1 383983734 -261543560#1 -261543560#0 -169095987 -448974993#2 -448974993#1 -448974993#0 -1088871993#1 -1088871993#0 -1088247274 -899604572#1 899604572#0 899604572#2" >
        <stop busStop="2869390122" duration="20" until="155.0"/> <!-- Weiherstraße -->
    </route>
    <route id="pt_bus_122:1" color="200,185,123">
        <stop busStop="-6262815029" duration="20"/> <!-- Parksiedlung Robert-Koch-Straße -->
        <stop busStop="66731754" duration="20"/>
        <stop busStop="6550964554" duration="20"/>
        <stop busStop="248493258" duration="20"/>
        <stop busStop="3933810892" duration="20"/>
        <stop busStop="27413262" duration="20"/>
        <stop busStop="3872841440" duration="20"/>
        <stop busStop="3876398757" duration="20"/>
        <stop busStop="-3566577209" duration="20"/>
    </route>
    <route id="pt_bus_105:0" color="12,136,68">
        <stop busStop="6327610134" duration="20"/> <!-- Am Schönen Rain -->
        <stop busStop="3887517744" duration="20"/>
        <stop busStop="2789521449" duration="20"/>
        <stop busStop="3872841435" duration="20"/>
        <stop busStop="6550732640" duration="20"/>
        <stop busStop="27413254" duration="20"/>
        <stop busStop="3872841440" duration="20"/>
        <stop busStop="6501810842" duration="20"/>
        <stop busStop="-3566577209" duration="20"/>
    </route>
    <route id="pt_bus_132:2" color="146,141,29">
        <stop busStop="-109597420" duration="20"/> <!-- Brückle -->
        <stop busStop="109597336" duration="20"/>
        <stop busStop="125392619" duration="20"/>
        <stop busStop="2125467401" duration="20"/>
        <stop busStop="2128183646" duration="20"/>
        <stop busStop="319321739" duration="20"/>
        <stop busStop="1967351665" duration="20"/>
        <stop busStop="2681465546" duration="20"/>
        <stop busStop="2859168238" duration="20"/>
        <stop busStop="2690529094" duration="20"/>
        <stop busStop="29027251" duration="20"/>
        <stop busStop="2730173334" duration="20"/>
        <stop busStop="2869390122" duration="20"/>
        <stop busStop="-280307039" duration="20"/>
    </route>
    <route id="pt_bus_131:1" color="248,60,90" edges="231875720#0 -158355468#1 316354392" >
        <stop busStop="-3968318269" duration="20" until="335.0"/> <!-- Parksiedlung Parkstraße -->
    </route>
    <route id="pt_bus_103:3" color="135,74,10" edges="1088879786#0 1088879786#1 10424183#1 10424183#2 10424183#3 10424183#4 432904514 432904515 4066943#0 4066943#2 4066943#3 4066943#5 4066943#6 23119545 23108338 448974992#0 448974992#1 448974992#2 1088247375 118976653 167641315#0 167641315#1 167641315#2 169095987 261543560#0 261543560#1 176337397 261543547#0 176337392 261543546 24994689 182054708#1 261543529-AddedOnRampEdge 261543529 261543528 243216783 243216837 243216829 613392718 345712781 180667073 386827126#0 386827126#1 423481788#0 423481788#1 220150011#0 220150011#1 423481777-AddedOnRampEdge 423481777 265461447 693946729#1 -138203748#1 -138203748#0 -180784446#0 -474485750#1 -474485750#0 -474485753 -474485743 -474485745#2 -474485745#1 -474485745#0 -474485742 -182058678#2 -182058678#1 -182058678#0 -474485738 -107757511 -474485739 -474485740 -474485741#1 -474485741#0 183049617 921020467#0 921020467#2 921020466#0 921020465#0 921020465#1 183049957#0 183049957#1 331752492#1 331752492#2 331752494 1169441387 23999291#0 23999291#1 -25531363#1 1180261353#1 1023926180#1 1023926180#2 37178375 -25973412#2 -25973412#1 -25973412#0 -30998700#0 23439929#0 23439929#2 23439929#3 23439929#4 23439929#5 23439929#6 -25576460#1 -25576460#0" >
        <stop busStop="1786518020" duration="20" until="171.0"/> <!-- Wannenrain -->
    </route>
    <route id="pt_bus_102:1" color="227,207,59" edges="25576460#0 25576460#1 -23439929#6 -23439929#5 -23439929#4 -23439929#3 -23439929#2 -23439929#0 -23439923 37177743#0 37177743#1 37177743#2 391001058 387401249#1 387401249#2 283020993#1 283020993#2 283020993#3 283020993#4 -25973409#3 -25973409#2 -25973409#1 -25973409#0 -1180261355 -1180261351 -4811464 4807776#0 4807776#1 758088375#0 -183049933#0 -1164287131#2 -1164287131#0 38361907 183419043#0 183419043#1 183419043#2 183419042#0 183419042#1 183419042#2 183419042#3 183419042#4 183419042#6 183419042#8 183419042#9 183419042#10 183419042#11 273990570 273990571#0 273990571#1 273990571#2 273990571#3 273990571#4 273990571#5 273990571#6 4811453#1 4811453#2 4811453#3 4811453#4 4811453#5 4811453#6 4811453#7 -275526211 -4807837#2 -4807837#1 -4807837#0 -54883018#3 -54883018#2 -54883018#1 -178668743 -202630135 -387401256#1 -290577631 1157387454#0 1157387454#1 138203609#0 138203610 387155262 156260255#0 156260255#1 156260255#2 156260255#3 138203607 4807840 26738365#0 26738365#1 8080009 423481795#1 345736610#1 133487398#1 346002998 346002984 243261562 613391027 383945638 261543545 261543549#0 261543534 24447630 4067008 176337394 261543542 261543555 24994574#0 24994574#1 383983734 -261543560#1 -261543560#0 -169095987 -448974993#2 -448974993#1 -448974993#0 -1088871993#1 -1088871993#0 -1088247274 -899604572#1 899604572#0 899604572#2" >
        <stop busStop="2869390122" duration="20" until="189.0"/> <!-- Weiherstraße -->
    </route>
    <route id="pt_bus_103:5" color="135,74,10" edges="1088879786#0 1088879786#1 10424183#1 10424183#2 10424183#3 10424183#4 432904514 432904515 4066943#0 4066943#2 4066943#3 4066943#5 4066943#6 23119545 23108338 448974992#0 448974992#1 448974992#2 1088247375 118976653 167641315#0 167641315#1 167641315#2 169095987 261543560#0 261543560#1 176337397 261543547#0 176337392 261543546 24994689 182054708#1 261543529-AddedOnRampEdge 261543529 261543528 243216783 243216837 243216829 613392718 345712781 180667073 386827126#0 386827126#1 423481788#0 423481788#1 220150011#0 220150011#1 423481777-AddedOnRampEdge 423481777 265461447 693946729#1 -138203748#1 -138203748#0 -180784446#0 -474485750#1 -474485750#0 -474485753 -474485743 -474485745#2 -474485745#1 -474485745#0 -474485742 -182058678#2 -182058678#1 -182058678#0 -474485738 -107757511 -474485739 -474485740 -474485741#1 -474485741#0 183049617 921020467#0 921020467#2 921020466#0 921020465#0 921020465#1 183049957#0 183049957#1 331752492#1 331752492#2 331752494 1169441387 23999291#0 23999291#1 -25531363#1 1180261353#1 1023926180#1 1023926180#2 37178375 -25973412#2 -25973412#1 -25973412#0 -30998700#0 23439929#0 23439929#2 23439929#3 23439929#4 23439929#5 23439929#6 -25576460#1 -25576460#0" >
        <stop busStop="1786518020" duration="20" until="230.0"/> <!-- Wannenrain -->
    </route>
    <route id="pt_bus_113:3" color="24,197,244" edges="-220797339 -24782849#0 -385259858 4813442 204724401 386239008 204724398 24447759#0 24447759#1 390216938 -441764367#0 -474485726 314609084 390216942 474485723#0 474485723#1 474485723#2 474485723#3 474485722 24008852#0 24008852#2 24008852#3 474485721 24008850#0 474485720 24302935 -390216943 -24511285#2 -24511285#1 189364993#0 -178668743 -202630135 -387401256#1 -290577631 163737798 182055123#0 182055123#1 1157387449#0 1157387449#1 1157387455 1157387457 31787956 911970184 911970185 939228251 178668745 146911733 316354392" >
        <stop busStop="3933810878" duration="20" until="76.0"/> <!-- Adenauerbrücke (oben) -->
    </route>
    <route id="pt_train_S1:1" color="92,142,60" edges="123444522#0 123444522#1 123444522#2 123444522#3 123444522#4 123444522#5 180784432#1 180784439#1 180784439#2 180784439#3 180784439#4 180784439#5 180784439#6 180784439#7 445470518 156199093#1 102841941 -102848495#2 -102848495#1 102841943 156199093#3 460942119#0 460942119#1 286146962#1 286146962#2 284659686#1 85959750#1 68908219#0 68908219#1 23163786#0 23163786#1 23163786#2 23163786#3 23163786#4" >
        <stop busStop="3068304222" duration="20" until="107.0"/> <!-- Altbach -->
        <stop busStop="3082162048" duration="20" until="269.0"/> <!-- Esslingen-Zell -->
        <stop busStop="263337147" duration="20" until="453.0"/> <!-- Oberesslingen -->
        <stop busStop="263337141" duration="20" until="627.0"/> <!-- Esslingen (Neckar) -->
        <stop busStop="3222963807" duration="20" until="799.0"/> <!-- Esslingen-Mettingen -->
        <stop busStop="3068257006" duration="20" until="957.0"/> <!-- Stuttgart-Obertürkheim -->
    </route>
    <route id="pt_bus_119:1" color="0,101,183" edges="-255241186 -156261680 -156261679#1 -156261679#0 21310559 -30998714 -30998715 -926867314 -139468854 -345736598 -926867318 -345736606 -265450242 -23182939 -926867322 -265461454 345736599 1157387459#0 11335855#0 11335855#1 265461445#0 169097422 265461443 345736597 345736596 423481788#0 423481788#1 220150011#0 220150011#1 423481777-AddedOnRampEdge 423481777 265461451 23205595 350147738 10492734#0 10492734#1 17096026 156260261 138203611#0 138203611#1 163737798 182055123#0 182055123#1 1157387449#0 1157387449#1 1157387455 1157387457 31787956 911970184 911970185 939228251 178668745 -332292229 -384972985 268558823#0 268558823#1" >
        <stop busStop="2426004802" duration="20" until="87.0"/> <!-- Zollberg -->
        <stop busStop="-89023451" duration="20" until="153.0"/> <!-- Oberer Eisbergweg -->
    </route>
    <route id="pt_trolleybus_101:1" color="255,46,29" edges="-5783284#3 -5783284#1 -5783284#0 5783243#0 154230476 570009376#0 570009376#1 570009371#0 974776882 974776881#1 974776881#2 974776881#3 387401262#0 387401262#1 387401262#3 387401262#4 387401262#5 591252083#0 591252082 896339462 273169656#0 4067157 273169649#0 273169649#1 146908203#0 146908203#1 146908203#2 146908203#3 661600434#0 661600434#1 121495762 661600433#0 146908199#1 146908199#2 -387401261 -378237359#6 -378237359#5 -378237359#4 -378237359#3 -378237359#2 -378237359#1 -378237359#0 -692537991#0 -1175994829 -378237361 -135078202#1 378237373#1 378237374#0 -378237372#1 -4807752#0 -937763472 -990451065 -400653105 -400653106 -675777502 -316354392 -146911733 -468914851 -939228251 -911970185 -911970184 -31787956 -1157387457 182055214 693946729#0 693946729#1 -138203748#1 -138203748#0 -180784446#0 -474485750#1 -474485750#0 -474485753 -474485743 -474485745#2 -474485745#1 -474485745#0 -474485742 -182058678#2 -182058678#1 -182058678#0 -474485738 -107757511 -474485739 -474485740 -474485741#1 -474485741#0 183049617 921020467#0 921020467#2 921020466#0 921020465#0 921020465#1 921020464#0 921020464#1 183049934 1164287131#0 1164287131#1 183049933#0 38361908#1 758088376#0 758088377#0 758088377#1 758088377#2 22889927#0 22889927#2 22889927#4 387296014#0 387296014#1 696225646#1 696225646#2 696225646#3 130569446 -758088379#0 -1162834479#1 -1162834479#0 384338153#0 384338153#1 384338154#0 384338154#1 384338154#2" >
        <stop busStop="3876394653" duration="20" until="71.0"/> <!-- Stadtgrenze -->
    </route>
    <route id="pt_bus_102:4" color="227,207,59" edges="25576460#0 25576460#1 -23439929#6 -23439929#5 -23439929#4 -23439929#3 -23439929#2 -23439929#0 -23439923 37177743#0 37177743#1 37177743#2 391001058 387401249#1 387401249#2 283020993#1 283020993#2 283020993#3 283020993#4 -25973409#3 -25973409#2 -25973409#1 -25973409#0 -1180261355 -1180261351 -4811464 4807776#0 4807776#1 758088375#0 -183049933#0 -1164287131#2 -1164287131#0 38361907 183419043#0 183419043#1 183419043#2 183419042#0 183419042#1 183419042#2 183419042#3 183419042#4 183419042#6 183419042#8 183419042#9 183419042#10 183419042#11 273990570 273990571#0 273990571#1 273990571#2 273990571#3 273990571#4 273990571#5 273990571#6 4811453#1 4811453#2 4811453#3 4811453#4 4811453#5 4811453#6 4811453#7 -275526211 -4807837#2 -4807837#1 -4807837#0 -54883018#3 -54883018#2 -54883018#1 -178668743 -202630135 -387401256#1 -290577631 1157387454#0 1157387454#1 138203609#0 138203610 387155262 156260255#0 156260255#1 156260255#2 156260255#3 138203607 4807840 26738365#0 26738365#1 8080009 423481795#1 345736610#1 133487398#1 346002998 346002984 243261562 613391027 383945638 261543545 261543549#0 261543534 24447630 4067008 176337394 261543542 261543555 24994574#0 24994574#1 383983734 -261543560#1 -261543560#0 -169095987 -448974993#2 -448974993#1 -448974993#0 -1088871993#1 -1088871993#0 -1088247274 -899604572#1 899604572#0 899604572#2" >
        <stop busStop="2869390122" duration="20" until="222.0"/> <!-- Weiherstraße -->
    </route>
    <route id="pt_bus_132:0" color="146,141,29">
    <stop busStop="-280307039" duration="20"/> <!-- Theodor-Heuss-Gymnasium -->
    <stop busStop="2869406244" duration="20"/>
    <stop busStop="3872841451" duration="20"/>
    <stop busStop="29027251" duration="20"/>
    <stop busStop="2690529094" duration="20"/>
    <stop busStop="6550732640" duration="20"/>
    <stop busStop="2681465554" duration="20"/>
    <stop busStop="437566098" duration="20"/>
    <stop busStop="8978123344" duration="20"/>
    <stop busStop="2125467407" duration="20"/>
    <stop busStop="2128184468" duration="20"/>
    <stop busStop="109597336" duration="20"/>
    <stop busStop="-109597420" duration="20"/>
    </route>
    <route id="pt_bus_103:4" color="135,74,10" edges="1088879786#0 1088879786#1 10424183#1 10424183#2 10424183#3 10424183#4 432904514 432904515 4066943#0 4066943#2 4066943#3 4066943#5 4066943#6 23119545 23108338 448974992#0 448974992#1 448974992#2 1088247375 118976653 167641315#0 167641315#1 167641315#2 169095987 261543560#0 261543560#1 176337397 261543547#0 176337392 261543546 24994689 182054708#1 261543529-AddedOnRampEdge 261543529 261543528 243216783 243216837 243216829 613392718 345712781 180667073 386827126#0 386827126#1 423481788#0 423481788#1 220150011#0 220150011#1 423481777-AddedOnRampEdge 423481777 265461447 693946729#1 -138203748#1 -138203748#0 -180784446#0 -474485750#1 -474485750#0 -474485753 -474485743 -474485745#2 -474485745#1 -474485745#0 -474485742 -182058678#2 -182058678#1 -182058678#0 -474485738 -107757511 -474485739 -474485740 -474485741#1 -474485741#0 183049617 921020467#0 921020467#2 921020466#0 921020465#0 921020465#1 183049957#0 183049957#1 331752492#1 331752492#2 331752494 1169441387 23999291#0 23999291#1 -25531363#1 1180261353#1 1023926180#1 1023926180#2 37178375 -25973412#2 -25973412#1 -25973412#0 -30998700#0 23439929#0 23439929#2 23439929#3 23439929#4 23439929#5 23439929#6 -25576460#1 -25576460#0" >
        <stop busStop="1786518020" duration="20" until="195.0"/> <!-- Wannenrain -->
    </route>