<?xml version="1.0" encoding="UTF-8"?>

<!-- generated on 2023-10-26 11:15:16.155970 by randomTrips.py v1_18_0+0000-03ecfdea036
<configuration>
    <net-file value="osm.net.xml.gz"/>
    <route-file value="routes.rou.xml"/>
    <length value="True"/>
    <validate value="True"/>
    <end value="1000.0"/>
</configuration>
-->

<!-- generated on 2023-10-26 11:15:15 by Eclipse SUMO duarouter Version 1.18.0
<configuration xmlns:xsi="http://www.w3.org/2001/XMLSchema-instance" xsi:noNamespaceSchemaLocation="http://sumo.dlr.de/xsd/duarouterConfiguration.xsd">

    <input>
        <net-file value="osm.net.xml.gz"/>
        <route-files value="trips.trips.xml"/>
    </input>

    <output>
        <output-file value="routes.rou.xml"/>
        <alternatives-output value="NUL"/>
    </output>

    <time>
        <begin value="0"/>
        <end value="1000.0"/>
    </time>

    <report>
        <no-warnings value="true"/>
        <ignore-errors value="true"/>
        <no-step-log value="true"/>
    </report>

</configuration>
-->

<routes xmlns:xsi="http://www.w3.org/2001/XMLSchema-instance" xsi:noNamespaceSchemaLocation="http://sumo.dlr.de/xsd/routes_file.xsd">
    <vehicle id="0" depart="0.00">
        <route edges="23528397#0 23528397#1 23724228#1 23724228#2 23724228#3 23724228#4 23724230#3 23724224#0 37181833#0 37181833#1 23528364#0 23528364#1 23528364#2 23528364#3 -125094680#1"/>
    </vehicle>
    <vehicle id="1" depart="1.00">
        <route edges="-31626938#0 31626938#0 31626938#1 31626938#2 31761728 632186818 4807840 26738365#0 26738365#1 265461450 423481774#0 423481774#1 220150010 10492736 345736590 345736590-AddedOffRampEdge 345736580 180667064#0 345736584 1157387458 345736587#0 345736587#1 30998717#0 -30998716#1 23032776#0 432904401 448036755#0 448036755#1 -264621638#1 -264621638#0 -943526837 -163737796 23094824#0 23094824#1 23100755#0 23100755#1 1086199881 1062836785#1 448974989 697552595#1 23100738#0 23100738#1 37721059 1086199879#0 1086199879#1 448036753 231875715#0 231875715#1 387401267#0 387401267#1 387401267#3 387401267#4 387401267#5 387401267#6 387401267#7 387401267#8 387401267#9 387401267#10 387401267#11 432904427#0 432904427#1 432904427#2 432904427#3 432904427#4 432904427#5 158355468#0 158355468#1 158355468#2 158355468#3 158355468#4 158355468#5 26520944#0 26520944#1 26520958 -26520958"/>
    </vehicle>
    <vehicle id="2" depart="2.00">
        <route edges="265461443 345736597 345736612 423481786 345736610#0 345736610#1 133487398#1 346002998 346002984 243261562 613391027 383945638 261543545 261543549#0 261543534 24447630 4067008 176337394 261543542 261543555 24994574#0 24994574#1"/>
    </vehicle>
    <vehicle id="3" depart="3.00">
        <route edges="432904411#1 -432904411#1 -432904411#0 448036751#0 448036751#1 -26520944#3 -26520944#2 -26520944#1 -26520944#0 -158355468#5 -158355468#4 -158355468#3 -158355468#2 -158355468#1 -158355468#0 -432904427#5 -432904427#4 -432904427#3 -432904427#2 -432904427#1 -432904427#0 -387401267#11 -387401267#10 -387401267#9 -387401267#8 -387401267#7 -387401267#6 -387401267#5 -387401267#4 -387401267#3 -387401267#1 -387401267#0 -231875715#2 -231875715#0 -448036753 -1086199879#1 -1086199879#0 -37721059 -23100738#1 -23100738#0 -697552595#1 -448974989 -1062836785#1 -1086199881 -23100755#1 -23100755#0 22910685#0 22910685#1 23094825 -28673831 -28673835 -37721067 -56255592 17096022 387498728#0 387498728#1 387498728#2 387498728#3 387498727#0 387498727#1 17096023 383945639 383945640 23032789#0 23032789#1 10698330#0 10698330#1 10698330#2 -23032828#2"/>
    </vehicle>
    <vehicle id="4" depart="4.00">
        <route edges="-89290458#1 -387296017#0 -387296015 -352842717#1 -352842717#0 -350088008 -281962648#4 -281962648#3 -23320593#5 -23320593#4 -23320593#3 -23320593#2 -23320593#1 281966915#4 281956697 281956701#2 281966910#0 281966910#1 281966910#2 281956702#0 281956702#2 281956710#0 281956711#0 281956711#1 281921554 -186037710 -436153519 -787900923 -385405402 -186037699#1 -202555475#11 -202555475#10 -202555475#9 -202555475#8 -202555475#7 -202555475#6 -202555475#4 -202555475#3 -202555475#2 -202555478#1 -202555478#0 -202499351#3 -555758425#0 202499352#0 202499352#1 390062306 202499350 390062305 202499346#0 202499346#1 -205275738#1 -205275738#0 -12098881#8 -12098881#7 -12098881#6 -12098881#5 -12098881#4 -12098881#3 -12098881#2 -12098881#1 -12098881#0 387117390 387155267 12098783 -431767318#2 25214142#0 25214142#1 -13655067#2 -13655067#1"/>
    </vehicle>
    <vehicle id="5" depart="5.00">
        <route edges="-260983469#2 -260983469#0 -366030054#0 -169224407#3 -169224407#2 -169224407#1 -169224407#0 169224406#0 169224406#1 694012890 386831070 694012902#0 694012902#1 386831071#0 386831071#1 29139497#0 29139497#2 23320738#0 23320738#1 23320738#2 29138345 202572130 78043851 -442274142 -1168323015#1 -1168323015#0 -410089906 592426952 199665487#0 199665487#1 956612326 23316365 794514058 -586693671 -794514057#4 -794514057#3 -794514057#2 -184749081#4 -184749081#3 184749081#3"/>
    </vehicle>
    <vehicle id="6" depart="6.00">
        <route edges="-135078201 135078201 -283413806 -316354387#0 -105914659#1 -675777502 -316354392 -146911733 -468914851 -939228251 -911970185 -911970184 -1157387457 182055214 693946729#0 693946729#1 -138203748#1 -138203748#0 -180784446#0 -474485750#1 -474485750#0 -474485753 -474485743 -474485745#2 -474485745#1 -474485745#0 -474485742 -182058678#2 -182058678#1 -182058678#0 -474485738 -107757511 -474485739 -474485740 -474485741#1 -474485741#0 183049617 921020467#0 921020467#2 921020466#0 921020465#0 921020465#1 183049957#0 183049957#1 331752492#1 331752492#2 331752494 1169441387 23999291#0 23999291#1 -25531363#1"/>
    </vehicle>
    <vehicle id="7" depart="7.00">
        <route edges="243216815 346002995 346002978 333651325 613396235 386239014 199025700#0 355357507 220797331 -24782849#0 -385259858 4813442 204724401 92134492#1 346002991 346002972 613710372 243261567 24447671 613710373 220150716#0 220150716#2 92134491 220150010 10492736 345736590 345736590-AddedOffRampEdge 345736580 180667064#0 345736584 1157387458 345736587#0 345736587#1 30998717#0 -30998716#1 23032776#0 432904401 448036755#0 448036755#1 -264621638#1 -264621638#0 -943526837 -163737796 23094824#0 23094824#1 23100755#0"/>
    </vehicle>
    <vehicle id="8" depart="8.00">
        <route edges="-26249172#3 -26249172#1 -26249172#0 -970380576 -26249170 -24008850#0 -474485721 -24008852#3 -24008852#2 -24008852#0 -474485722 -474485723#3 -474485723#2 -474485723#1 -474485723#0 -390216942 -390216941 22793624 26249197 441764367#0 379537578 4813445 441764369 921020467#0 921020467#2 921020466#0 921020465#0 921020465#1 921020464#0 921020464#1 183049934 1164287131#1 183049933#0 38361908#1 758088376#0 758088377#1 758088377#2 22889927#0 22889927#2 22889927#4 387296014#0 387296014#1 696225646#1 696225646#2 696225646#3 130569446 -758088379#0 -1162834479#1 -1162834479#0 -45524884#7 -45524884#6 -45524884#5 -45524884#4 23320427#0 23320427#1"/>
    </vehicle>
    <vehicle id="9" depart="9.00">
        <route edges="346002972 613710372 243261567 24447671 613710373 220150716#0 220150716#2 92134491 220150010 10492736 345736590 345736590-AddedOffRampEdge 345736580 180667064#0 345736584 180667070 -692610297 -900882212 -169097419#1 -900882211#1 -900882210 -111177314#4 -111177314#2 -111177314#1 -111177314#0 -911891312 -10698330#4"/>
    </vehicle>
    <vehicle id="10" depart="10.00">
        <route edges="345736599 1157387459#0 11335855#0 11335855#1 169097422 265461443 345736597 345736596 423481788#0 423481788#1 220150011#0 220150011#1 423481777-AddedOnRampEdge 423481777 265461451 23205595 350147738 10492734#0 10492734#1 138203605 138203604#0 387155260#0 387155260#1 220151070#0 220151070#1 220151070#3 4807782#0 4807782#2 4807780#1 4807780#2 169224406#0 169224406#1 694012890 694012889 694012904 -386831074 -386831075 -8812305#1 -8812305#0 -169127813#5 -169127813#4 -169127813#3 -169127813#2 -169127813#0 -387296020 -537710741#5 -537710741#3 -537710741#2 -537710741#1 -537710741#0 -13622237#0 -1030803965#1 -537356312#3 -537356312#2 -537356312#1 -537356312#0 -25213867#7 -25213867#6 -25213867#5 -25213867#4 -25213867#3 -25213867#2 -25213867#1 -25213867#0 560711244#0 560711244#1 13655087#1 1167826615#0 1167826615#1 258841468#1 258841468#2 258841468#3 258841359#0"/>
    </vehicle>
    <vehicle id="11" depart="11.00">
        <route edges="-412792786 412792786 23724230#0 23724230#1 23724230#2 23724230#3 23724224#0 -37181832#3 -37181832#2 -37181832#1 -37181832#0 -387212679#5 -387212679#4 -387212679#3 -387212679#1 -387212679#0 -25072810#1 -423491024 -387212676 281956706#0 1180535429 281956711#1 281921554 -186037710 -436153519 -787900923 -385405402 -186037699#1 -202555475#11 -202555475#10 -202555475#9 -202555475#8 -202555475#7 -202555475#6 -202555475#4 -202555475#3 -202555475#2 -202555478#1 -202555478#0 -202499351#3 -555758425#0 202499352#0 202499352#1 390062306 202499350 390062305 202499346#0 202499346#1 -205275738#1 -205275738#0 -12098881#8 -12098881#7 -12098881#6 -12098881#5 -12098881#4 -12098881#3 -12098881#2 -12098881#1 -12098881#0 387117390 387155267 -538358997#1 -538358997#0 -538358996#4 -538358996#3 -538358996#2 -169127787#1 -169127787#0 -34424782#2 -34424782#1 23528255#0 23528255#1 -552812219 -25213867#1 -25213867#0 -23471140#3 -23471140#1 -23471140#0"/>
    </vehicle>
    <vehicle id="12" depart="12.00">
        <route edges="692537991#0 378237359#0 378237359#1 378237359#2 378237359#5 378237359#6 387401261 896339465 383983724#0 146908199#1 146908199#2 -387401261 -378237359#6 -378237359#5 -378237359#2 -378237359#1 -378237359#0 -692537991#0 -1175994829 -378237361 -135078202#1 378237360 378237362#0 378237362#2 378237362#3 378237362#4 378237362#5 442274147 181275919#0 181275919#1 29138343#0 488705428#0 488705428#1 488705428#2 29138344 202572138 -23320738#2 -23320738#1 -23320738#0 -29139497#2 562273438 23329044 694012897#1 29139496 386831073 694012900#0 694012900#1 694012881 694012904 -386831074 -386831075 -8812305#1 -8812305#0 -785623014 -787951055 -385405407#2 -385405407#1 -385405407#0 -787951056#0 -785623013#1 -785623013#0 -385405398 281956710#0 281956711#0 281956711#1 281921554 -186037710 -436153519 -787900923 -385405402 -186037699#1 -202555475#11 -202555475#10 -202555475#9 -202555475#8 -202555475#7 -202555475#6 -202555475#4 -202555475#3 -202555475#2 -202555478#1 -202555478#0 -202499351#3 -555758425#0 202499352#0 202499352#1 390062306 202499354 280124330#1 -280092583 280092621#0 280092644 -280092614 -280128590 390062310 280092655 -560583335#1 -560583335#0 -560583334 -31133704#6 -31133704#5 -31133704#4 -31133704#3 -31133704#2 -31133704#1 -31133704#0 -412792788#2 -412792788#1 -412792788#0"/>
    </vehicle>
    <vehicle id="13" depart="13.00">
        <route edges="-23093009 448036757#2 432904401 448036755#0 448036755#1 -264621638#1 -264621638#0 -943526837 -163737796 23094824#0 23094824#1 23100755#0 -23100755#0"/>
    </vehicle>
    <vehicle id="14" depart="14.00">
        <route edges="386500264#3 386500264#8 -386500264#10 -386500264#7 -386500264#2 25812052 31133705#0 31133705#1 412792789#0 412792789#1 -26684108#3 -26684108#2 -26684108#1 -26684108#0 412792788#2 31133704#0 31133704#1 31133704#2 31133704#3 31133704#4 31133704#5 31133704#6 560583334 560583335#0 560583335#1 280092652#0 280092640 280128590 403701944 280092647 -280092621#1 42229180#0 202499355#0 202499355#1 390062305 387155264 387155265 202499353#0 202499353#1 555758425#0 202499351#0 202555478#0 202555478#1 202555475#2 202555475#3 202555475#4 202555475#6 202555475#7 202555475#8 202555475#9 202555475#10 202555475#11 186037699#0 385405402 787900923 436153519 186037710 -281921554 -281956711#1 -281956711#0 -281956710#1 385405398 385405409#0 785623013#1 281956714 23320720#1 23320720#3 23320720#4 23320720#5 23320720#6 23320720#7 23320720#8 23320720#9 23320720#10 -366030054#3 -366030054#2 -366030054#1 -366030054#0 23439978#0 23439978#1"/>
    </vehicle>
    <vehicle id="15" depart="15.00">
        <route edges="345736600 -345736598 -926867318 -345736606 -265450242 -23182939 -926867322 -265461454 345736599 1157387459#0 11335855#0 11335855#1 169097422 265461443 345736597 345736596 423481788#0 423481788#1 220150011#0 220150011#1 423481777-AddedOnRampEdge 423481777 265461451"/>
    </vehicle>
    <vehicle id="16" depart="16.00">
        <route edges="22946794#2 697552578 -697552578 -22946794#2 -22946794#1 -22946794#0 -156261679#1 -156261679#0 -11336059 -211686719 -30998714 -30998715 -926867314 -139468854 -345736598 -926867318 -345736606 -265450242 -23182939 -926867322 -265461454 345736599 1157387459#0 11335855#0 11335855#1 169097422 265461443 345736597 345736596 423481788#0 423481788#1 220150011#0 220150011#1 423481777-AddedOnRampEdge 423481777 265461451 23205595 350147738 10492734#0 10492734#1 17096026 156260261 138203611#0 138203611#1 163737798 182055123#0 182055123#1 1157387449#0 1157387449#1 1157387455 1157387457 911970184 911970185 939228251 178668745 146911733 316354392 675777502 400653106 400653105 990451065 823062060 4807752#0 4807752#1 39008607 378237367 135078202#0 378237361 692537992 692537991#0 378237359#0 378237359#1 378237359#2 378237359#5 378237359#6 387401261 896339465 383983724#0 896339463#0 896339463#1 383945635#1 383945635#2 823062063#1"/>
    </vehicle>
    <vehicle id="17" depart="17.00">
        <route edges="-537710741#0 -13622237#0 13622237#0 13622237#1 537710741#1 537710741#2 537710741#3 537710741#4 387296020 169127813#0 169127813#2 169127813#3 169127813#4 169127813#5 787951054 8812305#1 386831075 386831074 694012903 694012902#0 694012902#1 386831071#0 386831071#1 29139497#0 29139497#2 23320738#0 23320738#1 23320738#2 29138345 202572130 78043851 94166210#0 94166210#1 4811320#0 4811320#1 -378237362#5 -378237362#4 -378237362#3 -378237362#2 -378237362#0 -378237360 135078202#0 378237361 692537992 692537991#0 378237359#0 378237359#1 378237359#2 378237359#5 378237359#6 387401261 896339465 383983724#0 896339463#0 896339463#1 383945635#1 383945635#2 823062063#1 823062063#2 823062063#3 823062063#4 823062063#6 823062062#0 -4067157 -273169656#1 916323428 925072594 23163776"/>
    </vehicle>
    <vehicle id="18" depart="18.00">
        <route edges="37181833#0 25114845#0 25114845#1 -37181832#1 -37181832#0 -387212679#5 -387212679#4 -387212679#3 -387212679#1 -387212679#0 -25072810#1 -423491024 -387212676 281956706#0 1180535429 281956711#1 281921554 -186037710 -436153519 -787900923 -385405402 -186037699#1 -202555475#11 -202555475#10 -202555475#9 -202555475#8 -202555475#7 -202555475#6 -202555475#4 -202555475#3 -202555475#2 202499343 -224106070#5 -224106070#4 -224106070#2 -224106070#1 -224106070#0 538359001#0 538359001#1 -9515059#7 -9515059#6 23528216#0 23528216#1"/>
    </vehicle>
    <vehicle id="19" depart="19.00">
        <route edges="387296028#2 -387296028#2 -387296028#1 -387296028#0 -1035471354 -586693671 -794514057#4 23275231#0 23275231#1"/>
    </vehicle>
    <vehicle id="20" depart="20.00">
        <route edges="25752783#0 -25752783#0 -474485724 27396983 22793624 26249197 441764367#0 379537578 4813445 441764369 921020467#0 921020467#2 921020466#0 921020465#0 921020465#1 921020464#0 921020464#1 183419043#0 183419043#1 183419043#2 183419042#0 183419042#1 183419042#2 183419042#3 183419042#4 183419042#6 8571802#1 8571802#4 580616774#0 281956700#0 281956700#1 169098294#1 169098294#2 281956698#0 281956698#1 281966912 281956703 281966915#0 281966915#4 281956697 281956701#2 281966910#0 281966910#1 281966910#2 281956702#0 281956702#2 281956710#0 281956711#0 281956711#1 281921554 -186037710 -436153519 -787900923 -385405402 186037695 -274191618#1 -16361899#9 -16361899#8 -16361899#7 -16361899#6 -16361899#5"/>
    </vehicle>
    <vehicle id="21" depart="21.00">
        <route edges="-26521028#1 -26521028#0 448036752#1 432904421 432904422#0 432904422#1 432904422#2 -432904427#5 -432904427#4 -432904427#3 -432904427#2 -432904427#1 -432904427#0 -387401267#11 -387401267#10 -387401267#9 -387401267#8 -387401267#7 -387401267#6 -387401267#5 -387401267#4 -387401267#3 -387401267#1 -387401267#0 -231875715#2 -231875715#0 -448036753 -1086199879#1 -1086199879#0 -37721059 -23100738#1 -23100738#0 -697552595#1 -448974989 -1062836785#1 -1086199881 -23100755#1 -23100755#0 22910685#0 22910685#1 163737796 943526836 653561652 264621638#1 -448036755#1 -448036755#0 -432904401 -23032776#0 30998716#0 11335855#0 11335855#1 169097422 265461443 345736597 345736596 423481788#0 423481788#1 220150011#0 220150011#1 423481777-AddedOnRampEdge 423481777 265461447 693946729#1 -138203748#1 -138203748#0 -180784446#0 -474485750#1 -474485750#0 -474485753 -474485743 -474485745#2 -474485745#1 -474485745#0 -474485742 -182058678#2 -182058678#1 -182058678#0 -474485738 -107757511 -474485739 -474485740 -474485741#1 -474485741#0 183049617 921020467#0 921020467#2 921020466#0 921020465#0 921020465#1 921020464#0 921020464#1 183049934 1164287131#1 183049933#0 38361908#1 758088376#0 758088377#1 758088377#2 22889927#0 22889927#2 22889927#4 387296014#0 387296014#1 696225646#1 696225646#2 696225646#3 130569446 758088378#0 758088378#1 37181834#0 37181834#1 -37181834#1"/>
    </vehicle>
    <vehicle id="22" depart="22.00">
        <route edges="-22946794#1 -22946794#0 -156261679#1 -156261679#0 -11336059 -211686719 -30998714 -30998715 -926867314 -139468854 -345736598 -926867318 -345736606 -265450242 -23182939 -926867322 -265461454 345736599 1157387459#0 11335855#0 11335855#1 169097422 265461443 345736597 345736596 423481788#0 423481788#1 220150011#0 220150011#1 423481777-AddedOnRampEdge 423481777 265461451 23205595 350147738 10492734#0 10492734#1 138203605 138203604#0 387155260#0 387155260#1 220151070#0 220151070#1 220151070#3 4807782#0 4807782#2 4807780#1 4807780#2 169224406#0 169224406#1 694012890 694012889 694012904 -386831074 -386831075 -8812305#1 -8812305#0 -785623014 -787951055 -385405407#2 -385405407#1 -385405407#0 -787951056#0 -785623013#1 -785623013#0 -385405398 281956710#0 281956711#0 281956711#1 281921554 -186037710 -436153519 -787900923 -385405402 -186037699#1 -202555475#11 -202555475#10 -202555475#9 -202555475#8 -202555475#7 -202555475#6 -202555475#4 -202555475#3 -202555475#2 202499343 -224106070#5 -224106070#4 -224106070#2 -224106070#1 -224106070#0 538359001#0 538359001#1 -9515059#7 -9515059#6 -9515059#3 -26733892#2 -26733892#1 -26733892#0"/>
    </vehicle>
    <vehicle id="23" depart="23.00">
        <route edges="-23163759#2 -23163759#1 -23163759#0 23163759#0 23163759#1 23163759#2 23163759#3 23163759#4 23163759#5 23163759#6 23163779#1 387401262#4 387401262#5 591252083#0 591252082 896339462 273169656#0 4067157 273169649#0 273169649#1 146908203#0 146908203#1 146908203#2 146908203#3 661600434#0 661600434#1 121495762 661600433#0 146908199#1 146908199#2 -387401261 -378237359#6 -378237359#5 -378237359#2 -378237359#1 -378237359#0 -692537991#0 -1175994829 -378237361 -135078202#1 378237373#1 378237374#0 -378237372#1 -4807752#0 -937763472 -990451065 -400653105 -400653106 -675777502 -316354392 -146911733 -468914851 4811517 26738365#0 26738365#1 265461450 423481774#0 423481774#1 220150010 10492736 345736590 345736590-AddedOffRampEdge 345736580 180667064#0 345736574 393019010#0 393019010#1 345736571#1 -345736571#1"/>
    </vehicle>
    <vehicle id="24" depart="24.00">
        <route edges="23528364#1 23528364#2 -23528364#2 -23528364#1 -23528364#0 -37181833#1 25114845#0 25114845#1 -37181832#1 -37181832#0 -387212679#5 -387212679#4 -387212679#3 -387212679#1 -387212679#0 -25072810#1 -423491024 -387212676 281956706#0 761051959#0 385405398 385405409#0 785623013#1 281956714 385405407#0 385405407#1 385405407#2 787951055 785623014 787951054 8812305#1 386831075 386831074 694012903 694012902#0 694012902#1 386831071#0 386831071#1 29139497#0 29139497#2 23320738#0 23320738#1 23320738#2 29138345 202572130 78043851 94166210#0 94166210#1 386832701#0 386832701#1 442274134 386832702 -378237356 -23316466 442274132 442274138 386832703#0 386832703#1 4807753#0 4807753#1 4807753#2 -115626706 -611784190 -4807755#2"/>
    </vehicle>
    <vehicle id="25" depart="25.00">
        <route edges="-4807768#1 -4807768#0 -386832703#1 -386832703#0 -442274138 -442274132 -169220423 378237356 442274136 442274140 29138343#0 488705428#0 488705428#1 488705428#2 29138344 202572138 -23320738#2 -23320738#1 -23320738#0 -29139497#2 562273438 23329044 694012897#1 29139496 386831073 694012900#0 694012900#1 694012881 694012904 -386831074 -386831075 -8812305#1 -8812305#0 -785623014 -787951055 -385405407#2 -385405407#1 -385405407#0 -787951056#0 -785623013#1 -785623013#0 -385405398 -761051959#1 -281956706#0 281956707 387212683 25973389#0 25973389#1 -25973388"/>
    </vehicle>
    <vehicle id="26" depart="26.00">
        <route edges="-30998712#5 -30998712#4 -30998712#3 -30998712#2 -30998712#1 -30998712#0 -22946796#4 -22946796#3 -22946796#2 -22946796#1 -22946794#0 -156261679#1 -156261679#0 -11336059 -211686719 -30998714 -30998715 -926867314 -139468854 -345736598 -926867318 -345736606 -265450242 -23182939 -926867322 -265461454 345736599 1157387459#0 11335855#0 11335855#1 169097422 265461443 345736597 345736596 423481788#0 423481788#1 220150011#0 220150011#1 423481777-AddedOnRampEdge 423481777 265461451 23205595 350147738 10492734#0 10492734#1 138203605 138203604#0 387155260#0 387155260#1 220151070#0 220151070#1 220151070#3 4807782#0 4807782#2 4807780#1 4807780#2 169224406#0 169224406#1 694012890 694012889 694012904 -386831074 -386831075 -8812305#1 -8812305#0 -169127813#5 -169127813#4 -169127813#3 -169127813#2 -169127813#0 -387296020 -537710741#5 -537710741#3 -537710741#2 -537710741#1 -537710741#0 -13622237#0 -1030803965#1 -537356312#3 -537356312#2 -537356312#1 -537356312#0 -25213867#7 -25213867#6 -25213867#5 -25213867#4 -25213867#3 -25213867#2 -25213867#1 -25213867#0 560711244#0"/>
    </vehicle>
    <vehicle id="27" depart="27.00">
        <route edges="243216794 261543529-AddedOnRampEdge 261543529 261543528 243216783 243216837 243216829 613392718 345712781 180667073 386827126#0 386827126#1 423481788#0 423481788#1 220150011#0 220150011#1 423481777-AddedOnRampEdge 423481777 265461451 23205595 350147738 10492734#0 10492734#1 138203605 138203604#0 387155260#0 387155260#1 220151070#0 220151070#1 220151070#3 4807782#0 4807782#2 4807780#1 4807780#2 169224406#0 169224406#1 694012890 386831070 694012902#0 694012902#1 386831071#0 386831071#1 29139497#0 29139497#2 23320738#0 23320738#1 23320738#2 29138345 202572130 78043851 -442274142 -1168323015#1 -1168323015#0 -410089906 592426952 199665487#0 199665487#1 956612326 23316365 794514058 -586693671 -794514057#4 -794514057#3 -794514057#2 -23275244#5 -23275244#3 -23275244#2 -23275244#1 -23275244#0 23275256 23471029"/>
    </vehicle>
    <vehicle id="28" depart="28.00">
        <route edges="-23528387#0 412792787 23724228#1 23724228#2 23724228#3 23724228#4 23724230#3 23724224#0 -37181832#3 -37181832#2 -37181832#1 -37181832#0 -387212679#5 -387212679#4 -387212679#3 -387212679#1 -387212679#0 -25072810#1 -423491024 -387212676 281956706#0 761051959#0 385405398 385405409#0 785623013#1 281956714 385405407#0 385405407#1 385405407#2 787951055 785623014 787951054 8812305#1 386831075 386831074 694012903 4807779#0 4807779#1 694012899#0 694012899#1 38361911#0 4807781#0 4807781#1 4807784#0 4807784#1 661603871 661603873#0 661603873#1 156260255#0 156260255#1 156260255#2 156260255#3 138203607 4807840 26738365#0 26738365#1 265461450"/>
    </vehicle>
    <vehicle id="29" depart="29.00">
        <route edges="-23528330#0 -423491024 -387212676 281956706#0 1180535429 281956711#1 281921554 -186037710 -436153519 -787900923 -385405402 -186037699#1 -202555475#11 -202555475#10 -202555475#9 -202555475#8 -202555475#7 -202555475#6 -202555475#4 -202555475#3 -202555475#2 -202555478#1 -202555478#0 -202499351#3 -555758425#0 202499352#0 202499352#1 390062306 202499350 390062305 202499346#0 202499346#1 -205275738#1 -205275738#0 -12098881#8 -12098881#7 -12098881#6 -12098881#5 -12098881#4 -12098881#3 -12098881#2 -12098881#1 -12098881#0 387117390 387155267 -538358997#1 -538358997#0 -538358996#4 -538358996#3 -538358996#2 -169127787#1 -169127787#0 -34424782#2 -34424782#1 23528255#0 23528255#1 -552812219 -12099342#3 -12099342#1 -12099342#0 -387155256 -410089903#1 -410089903#0 -654570576#1 -654570576#0 -387155255#1 -34424783#2 -34424783#1 -34424783#0 -26734306#1 -26734306#0 387155261#0 387155261#2 387155261#3 8026844#0 8026844#1 8026844#2 8026844#4 1035471357#0 1035471357#1 688229200 24508781#0 24508781#1 24508781#2 24508781#3 558323894 -31157172#11 31157172#11 -558323894"/>
    </vehicle>
    <vehicle id="30" depart="30.00">
        <route edges="921020467#0 921020467#2 921020466#0 921020465#0 921020465#1 921020464#0 921020464#1 183419043#0 183419043#1 183419043#2 183419042#0 183419042#1 183419042#2 183419042#3 183419042#4 183419042#6 183419042#8 183419042#9 183419042#10 183419042#11 273990570 273990571#0 273990571#1 273990571#2 273990571#3 273990571#4 273990571#5 273990571#6 4811453#1 4811453#2 4811453#3 4811453#4 4811453#5 4811453#6 4811453#7 -275526211 -4807837#2 -4807837#1 -4807837#0 -54883018#3 -54883018#2 -54883018#1 -178668743 -202630135 -387401256#1 -290577631 1157387454#0 1157387454#1 138203609#0 138203610 387155262 156260255#0 156260255#1 156260255#2 156260255#3 138203607 4807840 26738365#0 26738365#1 265461450 423481774#0 423481774#1 220150010 10492736 345736590 345736590-AddedOffRampEdge 345736580 10698327 199026179 199026103 346002995 346002978 333651325 243216774"/>
    </vehicle>
    <vehicle id="31" depart="31.00">
        <route edges="23119545 23108338 448974992#0 448974992#1 448974992#2 1088247375 118976653 167641315#0 167641315#2 169095987 261543560#0 261543560#1 176337397 261543547#0 176337392 261543546 24994689 182054708#1 261543529-AddedOnRampEdge 261543529 261543528 243216783 243216837 243216829 613392718 345712781 180667073 386827126#0 386827126#1 423481788#0 423481788#1 220150011#0 220150011#1 423481777-AddedOnRampEdge 423481777 265461447 693946729#1 -138203748#1 -138203748#0 -180784446#0 -474485750#1 -474485750#0 -474485753 -474485743 -474485745#2 -474485745#1 -474485745#0 -474485742 -182058678#2 -182058678#1 -182058678#0 -474485738 -107757511 -474485739 -474485740 -474485741#1 -474485741#0 183049617 921020467#0 921020467#2 921020466#0 921020465#0 921020465#1 183049957#0 183049957#1 331752492#1 331752492#2 331752494 1169441387 23999291#0 23999291#1 -25531363#1 1180261353#1 1023926180#1 1023926180#2 37178375 -25973412#2 -25973412#1 -25973412#0 -30998700#0 23439929#0 23439929#2 23439929#3 23439929#4 269439187 25384891#1"/>
    </vehicle>
    <vehicle id="32" depart="32.00">
        <route edges="385259858 -385259858 4813442 204724401 92134492#1 346002991 346002972 613710372 243261567 24447671 613710373 220150716#0 220150716#2 92134491 220150010 10492736 345736590 345736590-AddedOffRampEdge 345736580 180667064#0 345736584 1157387458 345736587#0 345736587#1 30998717#0 11335846#1 926867325 345736604 926867324 265461454 926867322 23182939 265450242 345736606 686955221 345736600 345736605 1079724463 30998715 30998714 211686719 11336059 156261679#0 156261679#1 22946794#0 22946796#1 22946796#2 22946796#3 22946796#4 30998712#0 30998712#1 30998712#2 30998712#3 30998712#4 30998712#5"/>
    </vehicle>
    <vehicle id="33" depart="33.00">
        <route edges="-266053738#1 -266053738#0 -25072931#0 25973386#0 25973386#1 262922769 -387212679#1 -387212679#0 -25072810#1 -423491024 -387212676 281956706#0 761051959#0 385405398 385405409#0 785623013#1 281956714 385405407#0 385405407#1 385405407#2 787951055 785623014 787951054 8812305#1 386831075 386831074 694012903 4807779#0 4807779#1 694012899#0 694012899#1 38361911#0 4807781#0 4807781#1 4807784#0 4807784#1 661603871 661603873#0 661603873#1 156260255#0 156260255#1 156260255#2 156260255#3 138203607 4807840 26738365#0 26738365#1 265461450 423481774#0 423481774#1 220150010 10492736 345736590 345736590-AddedOffRampEdge 345736580 180667064#0 345736584 1157387458 345736587#0 345736587#1 30998717#0 11335846#1 926867325 345736604 926867324 265461454 926867322 23182939 265450242 345736606 686955221 345736600 345736605 -139468854"/>
    </vehicle>
    <vehicle id="34" depart="34.00">
        <route edges="-387212695#0 -262940681#0 387212690#0 387212690#1 387212690#2 387212690#3 387212683 25072810#0 387212679#0 306683410#0 306683410#1 306683410#2 306683410#3 306683410#4 387212679#4 387212679#5 37181832#0 37181832#1 37181832#2 37181832#3 -23724224#0 -23724230#3 -23724230#2 -23724230#1 -23724230#0 -412792772 -391056748#3 -391056748#1 -391056748#0 -391056747 -391056746#4 -391056746#2 -391056746#1 -391056746#0 -391056745 -391056744 -31133710"/>
    </vehicle>
    <vehicle id="35" depart="35.00">
        <route edges="-25935600#0 -23528344#5 -23528344#4 -23528344#2 -23528344#1 -23528344#0 -37181832#0 -387212679#5 -387212679#4 -387212679#3 -387212679#1 -387212679#0 -25072810#1 -423491024 -387212676 281956706#0 761051959#0 385405398 385405409#0 785623013#1 281956714 385405407#0 385405407#1 385405407#2 787951055 785623014 787951054 8812305#1 386831075 386831074 694012903 694012902#0 694012902#1 386831071#0 386831071#1 29139497#0 29139497#2 23320738#0 23320738#1 23320738#2 29138345 202572130 78043851 -442274142 -1168323015#1 -1168323015#0 -410089906 592426952 199665487#0 199665487#1 956612326 23316365 794514058 -586693671 -794514057#4 -794514057#3 -794514057#2 -23275244#5 -23275244#3 -23275244#2 -23275244#1 -23275244#0 -586693672#1 586693672#1"/>
    </vehicle>
    <vehicle id="36" depart="36.00">