<?xml version="1.0" encoding="UTF-8"?>

<!-- generated on 2024-02-28 19:09:40.379832 by $Id: ptlines2flows.py v1_3_1+0313-ccb31df3eb jakob.erdmann@dlr.de 2019-09-02 13:26:32 +0200 $ v1_19_0+0000-baa66a0f364
<configuration>
    <net-file value="crr.net.xml"/>
    <ptlines-file value="ptlines.xml"/>
    <ptstops-file value="additional.xml"/>
    <period value="1200.0"/>
    <use-osm-routes value="True"/>
    <ignore-errors value="True"/>
    <vtype-prefix value="pt_"/>
    <verbose value="True"/>
</configuration>
-->

<routes xmlns:xsi="http://www.w3.org/2001/XMLSchema-instance" xsi:noNamespaceSchemaLocation="http://sumo.dlr.de/xsd/routes_file.xsd">
    <vType id="pt_bus" vClass="bus" speedFactor="0.95"/>
    <vType id="pt_tram" vClass="tram" speedFactor="1.0"/>
    <vType id="pt_train" vClass="rail"/>
    <vType id="pt_subway" vClass="rail_urban"/>
    <vType id="pt_light_rail" vClass="rail_urban"/>
    <vType id="pt_monorail" vClass="rail_urban"/>
    <vType id="pt_trolleybus" vClass="bus" speedFactor="0.95"/>
    <vType id="pt_minibus" vClass="bus" speedFactor="0.95"/>
    <vType id="pt_share_taxi" vClass="taxi" speedFactor="0.95"/>
    <vType id="pt_aerialway" vClass="rail_urban" length="2.5" width="2" personCapacity="4"/>
    <vType id="pt_ferry" vClass="ship"/>
    <trip id="0_bus_114:0" type="pt_bus" depart="0" departLane="best" from="268558825" to="57852606#1" via="390062307 342553326#0 342553326#1 -146911733 -468914851 -178668745 -939228251 -911970185 -911970184 -31787956 -350217703 -387401257 -350217704#4 -350217704#3 -350217704#2 -350217704#1 -350217704#0 109592895 17097227 290577629#0 290577629#1 54883015 169218302#0 169218302#1 290577631 387401256#0 387401256#1 178668744 202630135 178668743 693946719#0 693946719#1 54883018#0 54883018#1 54883018#2 54883018#3 4807837#0 4807837#1 4807837#2 275526211 -4811453#7 -4811453#6 -4811453#5 -4811453#4 -4811453#3 -4811453#2 -4811453#1 -4811453#0 -273990571#6 -273990571#5 -273990571#4 -273990571#3 -273990571#2 -273990571#1 -273990571#0 -273990570 -183419042#11 -183419042#10 -183419042#9 -183419042#8 -183419042#7 -183419042#6 -183419042#5 -183419042#4 -183419042#3 -183419042#2 -183419042#1 -183419042#0 26249185#0 26249185#1 26249185#2 26249185#3 4811457 183049934 1164287131#0 1164287131#1 1164287131#2 183049933#0 183049933#1 183049933#2 183049933#3 38361908#0 38361908#1 758088376#0 758088376#1 758088377#0 758088377#1 758088377#2 22889927#0 22889927#1 22889927#2 22889927#3 22889927#4 387296014#0 387296014#1 387296014#2 696225646#0 696225646#1 696225646#2 696225646#3 130569446 758088380 758088378#0 758088378#1 37181834#0 37181834#1 37181834#2 37181834#3 57852607#0 57852607#1 57852607#2 57852607#3 664200670#0 664200670#1 846930959 57852609 518394100 412792770 412792769#0 412792769#1 518394102 518394089 57852606#0">
        <stop busStop="2739052081" duration="30"/>
        <stop busStop="-1254192526" duration="30"/>
        <stop busStop="1219607572" duration="30"/>
        <stop busStop="2626499005" duration="30"/>
        <stop busStop="-3876394650" duration="30"/>
        <stop busStop="1219607569" duration="30"/>
        <stop busStop="2849690352" duration="30"/>
    </trip>
    <trip id="1_bus_114:1" type="pt_bus" depart="0" departLane="best" from="-57852606#1" to="384972991#1" via="-57852606#0 -518394089 -518394102 -412792769#1 -412792769#0 -412792770 -518394100 -57852609 -846930959 -664200670#1 -664200670#0 -57852607#3 -57852607#2 -57852607#1 -57852607#0 -37181834#3 -37181834#2 -37181834#1 -37181834#0 -758088378#1 -758088378#0 -758088380 -130569446 -696225646#3 -696225646#2 -696225646#1 -696225646#0 696225651#0 696225651#1 -22889927#4 -22889927#3 -22889927#2 -22889927#1 -22889927#0 -758088377#2 -758088377#1 -758088377#0 -758088376#1 -758088376#0 -38361908#1 -38361908#0 -183049933#3 -183049933#2 -183049933#1 -183049933#0 -1164287131#2 -1164287131#1 -1164287131#0 38361907 183419043#0 183419043#1 183419043#2 183419042#0 183419042#1 183419042#2 183419042#3 183419042#4 183419042#5 183419042#6 183419042#7 183419042#8 183419042#9 183419042#10 183419042#11 273990570 273990571#0 273990571#1 273990571#2 273990571#3 273990571#4 273990571#5 273990571#6 4811453#0 4811453#1 4811453#2 4811453#3 4811453#4 4811453#5 4811453#6 4811453#7 -275526211 -4807837#2 -4807837#1 -4807837#0 -54883018#3 -54883018#2 -54883018#1 -54883018#0 -693946719#1 -693946719#0 -178668743 -202630135 -178668744 -387401256#1 -387401256#0 -290577631 -169218302#1 -169218302#0 -54883015 -290577629#1 -290577629#0 -17097227 -109592895 350217704#0 350217704#1 350217704#2 350217704#3 350217704#4 387401257 350217703 31787956 911970184 911970185 939228251 178668745 468914851 -332292229 -384972985 -384972984 384972991#0">
        <stop busStop="-2849690352" duration="30"/>
        <stop busStop="3876398764" duration="30"/>
        <stop busStop="3876394650" duration="30"/>
        <stop busStop="-2626499005" duration="30"/>
        <stop busStop="-1219607572" duration="30"/>
        <stop busStop="1254192526" duration="30"/>
        <stop busStop="2739052081" duration="30"/>
    </trip>
    <trip id="2_train_RE_5:0" type="pt_train" depart="0" departLane="best" from="248760538#0" to="762092286" via="248760538#1 248760538#2 248760538#3 248760538#4 180784443 180784434#0 180784434#1 180784449 156199094#0 156199094#1 156199094#2 156199094#3 156199089 102848475#0 102848475#1 102848507#0 102848507#1 244328491 460942121#0 460942121#1 25423242#0 25423242#1 17096019 85959749#0 85959749#1 68906765 70395557#0 70395557#1 48316096#0 48316096#1 48316096#2 48316096#3 48316096#4 48316096#5 244328503 431522363 431522376#0 431522376#1 993129238">
        <stop busStop="2661523902" duration="30"/>
        <stop busStop="3068257018" duration="30"/>
    </trip>
    <trip id="3_bus_816:0" type="pt_bus" depart="0" departLane="best" from="161599839#0" to="12511795" via="161599839#1 35818988 35880306 644467860 29146462#0 29146462#1 29146462#2 29146462#3 29146462#4 432904396 432904397#0 432904397#1 432904397#2 432904397#3 432904397#4 25117945#0 25117945#1 432904395 237134496#0 237134496#1 237134496#2 237134496#3 237134496#4 237134496#5 237134496#6 237134496#7 237134496#8 237134496#9 237134496#10 237134496#11 237134496#12 157693253#0 157693253#1 157693253#2 379988289#0 379988289#1 379988289#2 35327641#0 35327641#1 35327641#2 875800261#0 875800261#1 875800261#2 875800261#3 12787707#0 12787707#1 -343305746#5 -343305746#4 -343305746#3 -343305746#2 -343305746#1 -343305746#0 -75077804#4 -75077804#3 -75077804#2 -75077804#1 -75077804#0 -163301140#6 -163301140#5 -163301140#4 -163301140#3 -163301140#2 -163301140#1 -163301140#0 75077806 435365553#0 435365553#1 435365553#2 294067066#0 294067066#1 294067066#2 294067066#3 294067066#4 294067066#5 294067066#6 294067066#7 294067066#8 294067066#9 294067066#10 294067066#11 641934970#0 641934970#1 641934971#0 641934971#1">
        <stop busStop="320617737" duration="30"/>
        <stop busStop="886304632" duration="30"/>
        <stop busStop="886304631" duration="30"/>
        <stop busStop="-66830400" duration="30"/>
        <stop busStop="6260408369" duration="30"/>
    </trip>
    <trip id="4_bus_114:2" type="pt_bus" depart="0" departLane="best" from="268558825" to="57852606#1" via="390062307 342553326#0 342553326#1 -146911733 -468914851 -178668745 -939228251 -911970185 -911970184 -31787956 -350217703 -387401257 -350217704#4 -350217704#3 -350217704#2 -350217704#1 -350217704#0 109592895 17097227 290577629#0 290577629#1 54883015 169218302#0 169218302#1 290577631 387401256#0 387401256#1 178668744 202630135 178668743 693946719#0 693946719#1 54883018#0 54883018#1 54883018#2 54883018#3 4807837#0 4807837#1 4807837#2 275526211 -4811453#7 -4811453#6 -4811453#5 -4811453#4 -4811453#3 -4811453#2 -4811453#1 -4811453#0 -273990571#6 -273990571#5 -273990571#4 -273990571#3 -273990571#2 -273990571#1 -273990571#0 -273990570 -183419042#11 -183419042#10 -183419042#9 -183419042#8 -183419042#7 -183419042#6 -183419042#5 -183419042#4 -183419042#3 -183419042#2 -183419042#1 -183419042#0 26249185#0 26249185#1 26249185#2 26249185#3 4811457 183049934 1164287131#0 1164287131#1 1164287131#2 183049933#0 183049933#1 183049933#2 183049933#3 38361908#0 38361908#1 758088376#0 758088376#1 758088377#0 758088377#1 758088377#2 22889927#0 22889927#1 22889927#2 22889927#3 22889927#4 387296014#0 387296014#1 387296014#2 696225646#0 696225646#1 696225646#2 696225646#3 130569446 758088380 758088378#0 758088378#1 37181834#0 37181834#1 37181834#2 37181834#3 57852607#0 57852607#1 57852607#2 57852607#3 664200670#0 664200670#1 846930959 57852609 518394100 412792770 412792769#0 412792769#1 518394102 518394089 57852606#0">
        <stop busStop="2739052081" duration="30"/>
        <stop busStop="-6515317595" duration="30"/>
        <stop busStop="1219607507" duration="30"/>
        <stop busStop="2626499005" duration="30"/>
        <stop busStop="-3876394649" duration="30"/>
        <stop busStop="1219607569" duration="30"/>
        <stop busStop="2849690352" duration="30"/>
    </trip>
    <trip id="5_bus_106:0" type="pt_bus" depart="0" departLane="best" from="268558825" to="57852606#1" via="390062307 342553326#0 342553326#1 -146911733 -468914851 -178668745 -939228251 -911970185 -911970184 -31787956 -350217703 -387401257 -350217704#4 -350217704#3 -350217704#2 -350217704#1 -350217704#0 109592895 17097227 290577629#0 290577629#1 54883015 169218302#0 169218302#1 290577631 387401256#0 387401256#1 178668744 202630135 178668743 693946719#0 693946719#1 54883018#0 54883018#1 54883018#2 54883018#3 4807837#0 4807837#1 4807837#2 275526211 -4811453#7 -4811453#6 -4811453#5 -4811453#4 -4811453#3 -4811453#2 -4811453#1 -4811453#0 -273990571#6 -273990571#5 -273990571#4 -273990571#3 -273990571#2 -273990571#1 -273990571#0 -273990570 -183419042#11 -183419042#10 -183419042#9 -183419042#8 -183419042#7 -183419042#6 -183419042#5 -183419042#4 -183419042#3 -183419042#2 -183419042#1 -183419042#0 26249185#0 26249185#1 26249185#2 26249185#3 4811457 183049934 1164287131#0 1164287131#1 1164287131#2 183049933#0 183049933#1 183049933#2 183049933#3 38361908#0 38361908#1 758088376#0 758088376#1 758088377#0 758088377#1 758088377#2 22889927#0 22889927#1 22889927#2 22889927#3 22889927#4 387296014#0 387296014#1 387296014#2 696225646#0 696225646#1 696225646#2 696225646#3 130569446 758088380 758088378#0 758088378#1 37181834#0 37181834#1 37181834#2 37181834#3 57852607#0 57852607#1 57852607#2 57852607#3 664200670#0 664200670#1 846930959 57852609 518394100 412792770 412792769#0 412792769#1 518394102 518394089 57852606#0">
        <stop busStop="2739052081" duration="30"/>
        <stop busStop="-6515317595" duration="30"/>
        <stop busStop="1219607507" duration="30"/>
        <stop busStop="2626499005" duration="30"/>
        <stop busStop="-3876394649" duration="30"/>
        <stop busStop="1219607569" duration="30"/>
        <stop busStop="2849690352" duration="30"/>
    </trip>
    <trip id="6_train_S1:0" type="pt_train" depart="0" departLane="best" from="762092297" to="180784454#3" via="993129236 762092295#0 762092295#1 431522379 431522380 292876200#0 292876200#1 292876200#2 292876200#3 68908209#0 68908209#1 292876202#0 292876202#1 24304025 24304026 454381995 292876203 24304027 102807136#0 102807136#1 102807136#2 102848473 454381996 102848495#0 102848495#1 102848495#2 102848495#3 102848495#4 156198380 156198378 454381994#0 454381994#1 292876199#0 292876199#1 292876199#2 292876199#3 292876199#4 180784435 180784440 180784445 180784454#0 180784454#1 180784454#2">
        <stop busStop="263337116" duration="30"/>
        <stop busStop="263337125" duration="30"/>
        <stop busStop="1187584571" duration="30"/>
        <stop busStop="1187534664" duration="30"/>
        <stop busStop="3082151227" duration="30"/>
        <stop busStop="1187477995" duration="30"/>
    </trip>
    <trip id="7_bus_138:0" type="pt_bus" depart="0" departLane="best" from="-26685389#2" to="26969221#3" via="-26685389#1 -26685389#0 38152334#0 38152334#1 38152334#2 38152334#3 38152334#4 38152334#5 386500265#0 386500265#1 181647032 181648027#0 181648027#1 181647035 31133710 391056744 391056745 391056746#0 391056746#1 391056746#2 391056746#3 391056746#4 391056747 391056748#0 391056748#1 391056748#2 391056748#3 412792772 23724230#0 23724230#1 23724230#2 23724230#3 23724224#0 23724224#1 37181833#0 37181833#1 23724225 45524884#0 45524884#1 45524884#2 45524884#3 45524884#4 45524884#5 45524884#6 45524884#7 384338153#0 384338153#1 384338154#0 384338154#1 384338154#2 23320397#0 23320397#1 23320399 23320401#0 23320401#1 23320401#2 23320401#3 23320401#4 -384338153#1 -384338153#0 135078198 1162834479#0 1162834479#1 758088379#0 758088379#1 -758088380 -130569446 394114218#0 394114218#1 394114218#2 394114218#3 23059671#0 23059671#1 23059671#2 23059671#3 23059671#4 23059671#5 23059671#6 23059671#7 391001058 387401249#0 387401249#1 387401249#2 283020993#0 283020993#1 283020993#2 283020993#3 283020993#4 -25973409#3 -25973409#2 -25973409#1 -25973409#0 -1180261355 -1180261351 -4811464 47110442#0 47110442#1 47110442#2 47110442#3 23999291#0 23999291#1 23999291#2 23999290 4590682#0 4590682#1 4590682#2 38279874 38361905#0 38361905#1 39761675#0 39761675#1 39761675#2 39761675#3 38361904 4589249 169225672 4590683#0 4590683#1 4590683#2 4590683#3 4590683#4 4590683#5 394615943 394615949 -383983717#1 -383983717#0 -394615943 -4590683#5 -4590683#4 -4590683#3 -4590683#2 -4590683#1 -4590683#0 383983721 169120177 4589249 -439857017 -25935625 -25935624#2 -25935624#1 -25935624#0 -31151998 -25935613 -31151997 -34407928 -169225671#4 -169225671#3 -169225671#2 -169225671#1 -169225671#0 -169121712#1 -169121712#0 25973416 339957401 169225673 383945637 394594346 22793652#0 22793652#1 22793652#2 44459773#0 44459773#1 44459773#2 44459767 207083330 -44459774#3 -44459774#2 -44459774#1 -44459774#0 44104247 94166203#0 94166203#1 -24447786#1 -24447786#0 -24447783#1 -24447783#0 207210285 38509828#0 38509828#1 38509828#2 38509828#3 23320851 37871883 613399393#0 613399393#1 108793831#0 108793831#1 613399395 613399394 34187753#0 34187753#1 220797337#0 220797337#1 355357507 220797331 355357500#0 355357500#1 385259856 130569447 220797339 386236344#0 386236344#1 23286910 192671023 387498880#0 387498880#1 30998708#0 30998708#1 30998708#2 42326257 26969221#0 26969221#1 26969221#2">
        <stop busStop="764607112" duration="30"/>
        <stop busStop="29027118" duration="30"/>
        <stop busStop="29027150" duration="30"/>
        <stop busStop="3898445268" duration="30"/>
        <stop busStop="2849690655" duration="30"/>
        <stop busStop="2691822202" duration="30"/>
        <stop busStop="29027196" duration="30"/>
        <stop busStop="6537970432" duration="30"/>
        <stop busStop="3876394651" duration="30"/>
        <stop busStop="248825001" duration="30"/>
        <stop busStop="2869390122" duration="30"/>
        <stop busStop="-3872841451" duration="30"/>
        <stop busStop="2869007744" duration="30"/>
        <stop busStop="29027281" duration="30"/>
        <stop busStop="3872841449" duration="30"/>
        <stop busStop="3872841431" duration="30"/>
        <stop busStop="-3872841450" duration="30"/>
        <stop busStop="-3872841419" duration="30"/>
        <stop busStop="3471570207" duration="30"/>
        <stop busStop="-3883265542" duration="30"/>
    </trip>
    <trip id="8_bus_108:0" type="pt_bus" depart="0" departLane="best" from="-794514059" to="-26685613" via="-156260258 316354387#0 316354387#1 283413806 -135078201 -386832703#2 -386832703#1 -386832703#0 -442274138 -442274132 -169220423 23316466 378237356 442274136 442274140 29138343#0 29138343#1 488705428#0 488705428#1 488705428#2 29138344 202572138 202572135 -23320738#3 -23320738#2 -23320738#1 -23320738#0 -29139497#2 -29139497#1 -29139497#0 -562273435 694012897#0 694012897#1 694012896 386831073 694012900#0 694012900#1 38361912 694012881 694012904 -386831074 -386831075 -8812305#1 -8812305#0 -787951054 -785623014 -787951055 -385405407#2 -385405407#1 -385405407#0 -787951056#1 -787951056#0 -281956714 -785623013#1 -785623013#0 -385405409#1 -385405409#0 -385405398 -761051959#1 -761051959#0 -281956706#1 -281956706#0 281956707 387212676 387212683 423491025 423491024 23528330#0 23528330#1 23528330#2 386500261 386500263 386500262#0 386500262#1 -23528330#2 -23528330#1 -23528330#0 25072810#0 25072810#1 387212679#0 387212679#1 387212679#2 387212679#3 387212679#4 387212679#5 37181832#0 37181832#1 37181832#2 37181832#3 -23724224#1 -23724224#0 -23724230#3 -23724230#2 -23724230#1 -23724230#0 -412792772 -391056748#3 -391056748#2 -391056748#1 -391056748#0 -391056747 -391056746#4 -391056746#3 -391056746#2 -391056746#1 -391056746#0 -391056745 -391056744 -31133710 -181647035 4590693#0 4590693#1 -214352044 -122124925#3 -122124925#2 -122124925#1 -122124925#0 -26685389#2 -26685389#1 -26685389#0 38152334#0 38152334#1 38152334#2 38152334#3 38152334#4 38152334#5 386500265#0 386500265#1 -274543260#3 -274543260#2 -274543260#1 -274543260#0 -275174267#1 -275174267#0 -386500264#16 -386500264#15 -386500264#14 -386500264#13 -386500264#12 -386500264#11 -386500264#10 -386500264#9 -386500264#8 -386500264#7 -386500264#6 -386500264#5 -386500264#4 -386500264#3 -386500264#2 -386500264#1 -386500264#0 386500270#0 386500270#1">
        <stop busStop="-3566577210" duration="30"/>
        <stop busStop="-3872841444" duration="30"/>
        <stop busStop="3904477569" duration="30"/>
        <stop busStop="3872841439" duration="30"/>
        <stop busStop="-1104997093" duration="30"/>
        <stop busStop="-3887517742" duration="30"/>
        <stop busStop="-27413246" duration="30"/>
        <stop busStop="254785848" duration="30"/>
        <stop busStop="254785865" duration="30"/>
        <stop busStop="3898445266" duration="30"/>
        <stop busStop="3119585593" duration="30"/>
        <stop busStop="254785773" duration="30"/>
        <stop busStop="-2849690655" duration="30"/>
        <stop busStop="-3898445268" duration="30"/>
        <stop busStop="-3898445272" duration="30"/>
        <stop busStop="-1920592400" duration="30"/>
        <stop busStop="764607112" duration="30"/>
        <stop busStop="-3898445264" duration="30"/>
        <stop busStop="-292664404" duration="30"/>
    </trip>
    <trip id="9_trolleybus_101:0" type="pt_trolleybus" depart="0" departLane="best" from="23320397#0" to="676917368#1" via="23320397#1 23320399 23320401#0 23320401#1 23320401#2 23320401#3 23320401#4 -384338153#1 -384338153#0 135078198 1162834479#0 1162834479#1 758088379#0 758088379#1 -758088380 -130569446 -696225646#3 -696225646#2 -696225646#1 -696225646#0 696225651#0 696225651#1 -22889927#4 -22889927#3 -22889927#2 -22889927#1 -22889927#0 -758088377#2 -758088377#1 -758088377#0 -758088376#1 -758088376#0 -38361908#1 -38361908#0 -183049933#3 -183049933#2 -183049933#1 -183049933#0 -1164287131#2 -1164287131#1 -1164287131#0 38361907 183419043#0 183419043#1 183419043#2 183419042#0 183419042#1 183419042#2 183419042#3 183419042#4 183419042#5 183419042#6 183419042#7 183419042#8 183419042#9 183419042#10 183419042#11 273990570 273990571#0 273990571#1 273990571#2 273990571#3 273990571#4 273990571#5 273990571#6 4811453#0 4811453#1 4811453#2 4811453#3 4811453#4 4811453#5 4811453#6 4811453#7 -275526211 -4807837#2 -4807837#1 -4807837#0 -54883018#3 -54883018#2 -54883018#1 -54883018#0 -693946719#1 -693946719#0 -178668743 -202630135 -178668744 -387401256#1 -387401256#0 -290577631 -169218302#1 -169218302#0 -54883015 -290577629#1 -290577629#0 -17097227 -109592895 350217704#0 350217704#1 350217704#2 350217704#3 350217704#4 387401257 350217703 31787956 911970184 911970185 939228251 178668745 468914851 146911733 316354392 675777502 105914659#0 105914659#1 105914659#2 283413805 316354387#0 316354387#1 283413806 -135078201 4807753#0 4807753#1 4807753#2 37181838#0 37181838#1 37181838#2 37181838#3 37181838#4 37181839#0 37181839#1 37181839#2 37181839#3 378237365#0 378237365#1 39008607 378237366 378237367 39008608#0 39008608#1 39008608#2 135078202#0 135078202#1 378237361 692537992 1175994829 692537991#0 692537991#1 378237359#0 378237359#1 378237359#2 378237359#3 378237359#4 378237359#5 378237359#6 387401261 896339465 383983724#0 383983724#1 383983724#2 896339464 23163758 135078205 388285827#0 388285827#1 448974996#0 448974996#1 30010699#0 30010699#1 448974997#0 448974997#1 448974997#2 30010698#0 30010698#1 383983728 290461455#0 290461455#1 290461455#2 290461455#3 -273169656#1 -273169656#0 -896339462 -591252082 -591252083#1 -591252083#0 -387401262#7 -387401262#6 -387401262#5 -387401262#4 -387401262#3 -387401262#2 -387401262#1 -387401262#0 -974776881#3 -974776881#2 -974776881#1 -974776881#0 -974776882 -570009371#1 -570009371#0 -570009376#1 -570009376#0 -154230476 -5783243#1 -5783243#0 548463239#0 548463239#1 548463239#2 5783284#0 5783284#1 5783284#2 5783284#3 548505094#0 548505094#1 548505094#2 548505094#3 548505094#4 548505096#0 548505096#1 548505095#0 548505095#1 548505095#2 26263195#0 26263195#1 540190677 527346555 676917368#0">
        <stop busStop="3876394651" duration="30"/>
        <stop busStop="3876398764" duration="30"/>
        <stop busStop="30895400" duration="30"/>
        <stop busStop="3876394650" duration="30"/>
        <stop busStop="3876394655" duration="30"/>
        <stop busStop="3876394647" duration="30"/>
        <stop busStop="-2626499005" duration="30"/>
        <stop busStop="-1219607572" duration="30"/>
        <stop busStop="1254192526" duration="30"/>
        <stop busStop="3566577204" duration="30"/>
        <stop busStop="3876398757" duration="30"/>
        <stop busStop="3876398758" duration="30"/>
        <stop busStop="6501566928" duration="30"/>
        <stop busStop="3872480825" duration="30"/>
        <stop busStop="2939873614" duration="30"/>
        <stop busStop="-3876398770" duration="30"/>
        <stop busStop="3876398763" duration="30"/>
        <stop busStop="6334840685" duration="30"/>
    </trip>
    <trip id="10_bus_62:0" type="pt_bus" depart="0" departLane="best" from="570449183#0" to="-686400891#0" via="570449183#1 570449182#0 570449182#1 154230466#0 154230466#1 154230466#2 154230466#3 154230466#4 570455526#0 570455526#1 570081632 570455523 570081633 192950762 192950772 -26245946#1 -26245946#0 548626550 36989717#0 36989717#1 -288806325#1 -288806325#0 -288808359 -5783099#2 -5783099#1 -5783099#0 -25642410#2 -25642410#1 -25642410#0 -431444811 -431444812 -288806327 -25642408 -431480688 -35359315#2 -35359315#1 -35359315#0 -316814479 -24780159#1 -24780159#0 -23062040 -237155758 -548822666 -548822665 -29556306#2 -29556306#1 -29556306#0 548822667 169217571#0 169217571#1 25642412 25749760 244531066#0 244531066#1 244531066#2 548822664 25643477 24780172#0 24780172#1 244530807 243216856 169217573#0 169217573#1 243216863 243216867#0 243216867#1 243216867#2 569646673 29559418#0 29559418#1 29559418#2 29559418#3 -278026024#1 -278026024#0 -763418587 -163491634 -161583692#3 -161583692#2 -161583692#1 -161583692#0 -569642543 -27607327#1 -27607327#0 25460406#0 25460406#1 72604695 -437885764 -437885765 -35359026 -686400891#2 -686400891#1">
        <stop busStop="278558096" duration="30"/>
        <stop busStop="430160899" duration="30"/>
        <stop busStop="282837104" duration="30"/>
        <stop busStop="-6501447771" duration="30"/>
        <stop busStop="895825756" duration="30"/>
        <stop busStop="-895825842" duration="30"/>
        <stop busStop="-282836338" duration="30"/>
    </trip>
    <trip id="11_bus_131:0" type="pt_bus" depart="0" departLane="best" from="675777502" to="-166708516#0" via="105914659#0 105914659#1 105914659#2 283413805 156260258 794514059 386500268#0 386500268#1 385405404 392441930 4807839 233802788 384972984 384972985 332292229 -468914851 -178668745 -939228251 -911970185 -911970184 -31787956 -350217703 -387401257 -350217704#4 -350217704#3 -350217704#2 -350217704#1 -350217704#0 109592895 17097227 290577629#0 290577629#1 54883015 156260251#0 156260251#1 1157387454#0 1157387454#1 138203609#0 138203609#1 138203610 387155262 290577628 387155259 156260255#0 156260255#1 156260255#2 156260255#3 138203606 138203607 4807840 23205593#0 23205593#1 26738365#0 26738365#1 265461448 265461450 438385887 423481774#0 423481774#1 220150010 423481781 10492736 345736590 265461442 345736580 180667064#0 180667064#1 345736584 265461444#0 265461444#1 692610294 1157387458 345736587#0 345736587#1 22910600 -23032775 -439857013 23032776#0 23032776#1 432904401 448036755#0 448036755#1 -264621638#1 -264621638#0 -653561652 -943526837 -943526836 -163737796 -23032774 23094824#0 23094824#1 23100755#0 23100755#1 1086199881 1062836785#0 1062836785#1 448974989 697552595#0 697552595#1 23100738#0 23100738#1 37721059 1086199879#0 1086199879#1 448036753 231875715#0 231875715#1 231875715#2 160153201 387401267#0 387401267#1 387401267#2 387401267#3 387401267#4 387401267#5 387401267#6 387401267#7 387401267#8 387401267#9 387401267#10 387401267#11 387401267#12 432904427#0 432904427#1 432904427#2 432904427#3 432904427#4 432904427#5 158355468#0 158355468#1 158355468#2 158355468#3 158355468#4 158355468#5 158355468#6 158355468#7 380001159 -23285074#2 -23285074#1 -23285074#0 393624986#0 393624986#1 393624986#2 393624986#3 -573703452 -231875720#4 -231875720#3 -231875720#2 -231875720#1 -231875720#0 -875832915 -641925450#1 -641925450#0 -875832916 -231875721#3 -231875721#2 -231875721#1 -231875721#0 -151742731#6 -151742731#5 -151742731#4 -151742731#3 -151742731#2 -151742731#1 -151742731#0 75077804#0 75077804#1 75077804#2 75077804#3 75077804#4 343305746#0 343305746#1 343305746#2 343305746#3 343305746#4 343305746#5 -12787707#1 -12787707#0 -875800261#3 -875800261#2 -875800261#1 -875800261#0 -35327641#2 -35327641#1 -35327641#0 -379988289#2 -379988289#1 -379988289#0 -157693253#2 -157693253#1 -157693253#0 -237134496#12 -237134496#11 -237134496#10 -237134496#9 -237134496#8 -237134496#7 -237134496#6 -237134496#5 -237134496#4 -237134496#3 -237134496#2 -237134496#1 -237134496#0 -432904395 -25117945#1 -25117945#0 -432904397#4 -432904397#3 -432904397#2 -432904397#1 -432904397#0 -432904396 -29146462#4 -29146462#3 -29146462#2 -29146462#1 -29146462#0 29146499#0 29146499#1 29146499#2 161599839#0 161599839#1 35818988 35880306 644467860 29146462#0 29146462#1 29146462#2 29146462#3 29146462#4 432904396 432904397#0 432904397#1 432904397#2 432904397#3 432904397#4 25117945#0 25117945#1 -164178411 -166708516#3 -166708516#2 -166708516#1">
        <stop busStop="3224629436" duration="30"/>
        <stop busStop="-3872841443" duration="30"/>
        <stop busStop="30863641" duration="30"/>
        <stop busStop="3933810892" duration="30"/>
        <stop busStop="248493258" duration="30"/>
        <stop busStop="-3966025662" duration="30"/>
        <stop busStop="3966025661" duration="30"/>
        <stop busStop="3966025663" duration="30"/>
        <stop busStop="3968318266" duration="30"/>
        <stop busStop="6262815030" duration="30"/>
        <stop busStop="-3968318276" duration="30"/>
        <stop busStop="6262814783" duration="30"/>
        <stop busStop="-4379712496" duration="30"/>
        <stop busStop="-886304580" duration="30"/>
        <stop busStop="320617737" duration="30"/>
    </trip>
    <trip id="12_bus_61:0" type="pt_bus" depart="0" departLane="best" from="-26263195#1" to="-431444776" via="-26263195#0 25460405 -26245946#1 -26245946#0 548626550 36989717#0 36989717#1 -288806325#1 -288806325#0 -288808359 -5783099#2 -5783099#1 -5783099#0 5782992#0 5782992#1 288806326#0 288806326#1 288806326#2 317544600#0 317544600#1 317544600#2 317544600#3 548669410#0 548669410#1 548669407 548669406 548669409 29462349#0 29462349#1 -548813064#1 -548813064#0 -431444780#3 -431444780#2 -431444780#1 -431444780#0">
        <stop busStop="-5226460705" duration="30"/>
        <stop busStop="430160899" duration="30"/>
        <stop busStop="282837104" duration="30"/>
        <stop busStop="5300400686" duration="30"/>
        <stop busStop="895825813" duration="30"/>
        <stop busStop="-269253233" duration="30"/>
    </trip>
    <trip id="13_bus_61:1" type="pt_bus" depart="0" departLane="best" from="431444776" to="-676917368#0" via="431444780#0 431444780#1 431444780#2 431444780#3 548813064#0 548813064#1 548813063 29462298#0 29462298#1 29462298#2 548669408 -548669406 -548669407 -548669410#1 -548669410#0 -317544600#3 -317544600#2 -317544600#1 -317544600#0 -288806326#2 -288806326#1 -288806326#0 -5782992#1 -5782992#0 5783099#0 5783099#1 5783099#2 288808359 288806325#0 288806325#1 36989666 548626555 -36990115 -676917368#1">
        <stop busStop="269253233" duration="30"/>
        <stop busStop="895825832" duration="30"/>
        <stop busStop="-5300400686" duration="30"/>
        <stop busStop="-895825744" duration="30"/>
    </trip>