<?xml version="1.0" encoding="UTF-8"?>

<!-- generated on 2023-10-26 11:15:18.559963 by randomTrips.py v1_18_0+0000-03ecfdea036
<configuration>
    <net-file value="osm.net.xml.gz"/>
    <route-file value="routes.rou.xml"/>
    <length value="True"/>
    <validate value="True"/>
    <end value="1000.0"/>
</configuration>
-->

<!-- generated on 2023-10-26 11:15:17 by Eclipse SUMO duarouter Version 1.18.0
<configuration xmlns:xsi="http://www.w3.org/2001/XMLSchema-instance" xsi:noNamespaceSchemaLocation="http://sumo.dlr.de/xsd/duarouterConfiguration.xsd">

    <input>
        <net-file value="osm.net.xml.gz"/>
        <route-files value="trips.trips.xml"/>
    </input>

    <output>
        <output-file value="trips.trips.xml.tmp"/>
        <alternatives-output value="NUL"/>
        <write-trips value="true"/>
    </output>

    <time>
        <begin value="0"/>
        <end value="1000.0"/>
    </time>

    <report>
        <no-warnings value="true"/>
        <ignore-errors value="true"/>
        <no-step-log value="true"/>
    </report>

</configuration>
-->

<routes xmlns:xsi="http://www.w3.org/2001/XMLSchema-instance" xsi:noNamespaceSchemaLocation="http://sumo.dlr.de/xsd/routes_file.xsd">
    <trip id="0" depart="0.00" from="23528397#0" to="-125094680#1"/>
    <trip id="1" depart="1.00" from="-31626938#0" to="-26520958"/>
    <trip id="2" depart="2.00" from="265461443" to="24994574#1"/>
    <trip id="3" depart="3.00" from="432904411#1" to="-23032828#2"/>
    <trip id="4" depart="4.00" from="-89290458#1" to="-13655067#1"/>
    <trip id="5" depart="5.00" from="-260983469#2" to="184749081#3"/>
    <trip id="6" depart="6.00" from="-135078201" to="-25531363#1"/>
    <trip id="7" depart="7.00" from="243216815" to="23100755#0"/>
    <trip id="8" depart="8.00" from="-26249172#3" to="23320427#1"/>
    <trip id="9" depart="9.00" from="346002972" to="-10698330#4"/>
    <trip id="10" depart="10.00" from="345736599" to="258841359#0"/>
    <trip id="11" depart="11.00" from="-412792786" to="-23471140#0"/>
    <trip id="12" depart="12.00" from="692537991#0" to="-412792788#0"/>
    <trip id="13" depart="13.00" from="-23093009" to="-23100755#0"/>
    <trip id="14" depart="14.00" from="386500264#3" to="23439978#1"/>
    <trip id="15" depart="15.00" from="345736600" to="265461451"/>
    <trip id="16" depart="16.00" from="22946794#2" to="823062063#1"/>
    <trip id="17" depart="17.00" from="-537710741#0" to="23163776"/>
    <trip id="18" depart="18.00" from="37181833#0" to="23528216#1"/>
    <trip id="19" depart="19.00" from="387296028#2" to="23275231#1"/>
    <trip id="20" depart="20.00" from="25752783#0" to="-16361899#5"/>
    <trip id="21" depart="21.00" from="-26521028#1" to="-37181834#1"/>
    <trip id="22" depart="22.00" from="-22946794#1" to="-26733892#0"/>
    <trip id="23" depart="23.00" from="-23163759#2" to="-345736571#1"/>
    <trip id="24" depart="24.00" from="23528364#1" to="-4807755#2"/>
    <trip id="25" depart="25.00" from="-4807768#1" to="-25973388"/>
    <trip id="26" depart="26.00" from="-30998712#5" to="560711244#0"/>
    <trip id="27" depart="27.00" from="243216794" to="23471029"/>
    <trip id="28" depart="28.00" from="-23528387#0" to="265461450"/>
    <trip id="29" depart="29.00" from="-23528330#0" to="-558323894"/>
    <trip id="30" depart="30.00" from="921020467#0" to="243216774"/>
    <trip id="31" depart="31.00" from="23119545" to="25384891#1"/>
    <trip id="32" depart="32.00" from="385259858" to="30998712#5"/>
    <trip id="33" depart="33.00" from="-266053738#1" to="-139468854"/>
    <trip id="34" depart="34.00" from="-387212695#0" to="-31133710"/>
    <trip id="35" depart="35.00" from="-25935600#0" to="586693672#1"/>
    <trip id="36" depart="36.00" from="400416445#2" to="-387296020"/>
    <trip id="37" depart="37.00" from="243261557" to="-688046977"/>
    <trip id="38" depart="38.00" from="4807751#0" to="135078205"/>
    <trip id="39" depart="39.00" from="-30998700#0" to="-281956705#3"/>
    <trip id="40" depart="40.00" from="23163773" to="-30998712#4"/>
    <trip id="41" depart="41.00" from="23275175#8" to="45524884#3"/>
    <trip id="42" depart="42.00" from="-592426952" to="-263325721"/>
    <trip id="43" depart="43.00" from="9515416#2" to="199026103"/>
    <trip id="44" depart="44.00" from="-23059802" to="-16361899#6"/>
    <trip id="45" depart="45.00" from="-23184018" to="23528356#0"/>
    <trip id="46" depart="46.00" from="31626938#1" to="-9515059#2"/>
    <trip id="47" depart="47.00" from="-184749081#0" to="-560583354"/>
    <trip id="48" depart="48.00" from="9515059#0" to="23032787#2"/>
    <trip id="49" depart="49.00" from="8026683#9" to="388285825"/>
    <trip id="50" depart="50.00" from="-1088879820" to="26249180#1"/>
    <trip id="51" depart="51.00" from="24511163#4" to="23059801"/>
    <trip id="52" depart="52.00" from="-30998712#4" to="243216794"/>
    <trip id="53" depart="53.00" from="-23220040" to="10698327"/>
    <trip id="54" depart="54.00" from="1157387449#0" to="686955221"/>
    <trip id="55" depart="55.00" from="400416445#1" to="-30998715"/>
    <trip id="56" depart="56.00" from="169127821#2" to="-24447759#1"/>
    <trip id="57" depart="57.00" from="474485745#0" to="400653105"/>
    <trip id="58" depart="58.00" from="-37721067" to="24146204"/>
    <trip id="59" depart="59.00" from="23439906#3" to="-23471136#1"/>
    <trip id="60" depart="60.00" from="281956700#1" to="23093006"/>
    <trip id="61" depart="61.00" from="30010180" to="23032788#3"/>
    <trip id="62" depart="62.00" from="-10230452#3" to="-391056746#4"/>
    <trip id="63" depart="63.00" from="-1175994829" to="545334726#1"/>
    <trip id="64" depart="64.00" from="403685569#1" to="379537578"/>
    <trip id="65" depart="65.00" from="-386500264#7" to="-17076383#0"/>
    <trip id="66" depart="66.00" from="401038000#0" to="600403632#1"/>
    <trip id="67" depart="67.00" from="-23032792#3" to="168355066#0"/>
    <trip id="68" depart="68.00" from="-202350637" to="28675674#1"/>
    <trip id="69" depart="69.00" from="282513345" to="-23312960#0"/>
    <trip id="70" depart="70.00" from="151267553#0" to="23163759#6"/>
    <trip id="71" depart="71.00" from="-30998700#2" to="4066943#3"/>
    <trip id="72" depart="72.00" from="-899604572#1" to="-25973390"/>
    <trip id="73" depart="73.00" from="23032786#0" to="265491171"/>
    <trip id="74" depart="74.00" from="-25497534#4" to="-387212695#0"/>
    <trip id="75" depart="75.00" from="9514889#0" to="243261557"/>
    <trip id="76" depart="76.00" from="10417273#1" to="220150011#1"/>
    <trip id="77" depart="77.00" from="-23275165#2" to="-26614511#0"/>
    <trip id="78" depart="78.00" from="-40817206#3" to="23320404#5"/>
    <trip id="79" depart="79.00" from="-26614529#3" to="-264674438"/>
    <trip id="80" depart="80.00" from="-205275738#0" to="23528377#1"/>
    <trip id="81" depart="81.00" from="-265514833" to="474485730#0"/>
    <trip id="82" depart="82.00" from="387296020" to="-202555475#3"/>
    <trip id="83" depart="83.00" from="-26733995#3" to="24508781#3"/>
    <trip id="84" depart="84.00" from="-25973389#1" to="-23320434#3"/>
    <trip id="85" depart="85.00" from="548462796" to="23275131#1"/>
    <trip id="86" depart="86.00" from="146908203#0" to="31626938#2"/>
    <trip id="87" depart="87.00" from="345736605" to="-25114845#1"/>
    <trip id="88" depart="88.00" from="-23100755#0" to="10424183#4"/>
    <trip id="89" depart="89.00" from="-9054575" to="151634954"/>
    <trip id="90" depart="90.00" from="26249176#2" to="24608218"/>
    <trip id="91" depart="91.00" from="9054581#1" to="-23111554#1"/>
    <trip id="92" depart="92.00" from="-654570576#0" to="-419654733#0"/>
    <trip id="93" depart="93.00" from="387296028#2" to="-283020995"/>
    <trip id="94" depart="94.00" from="-24791522#0" to="1183978013"/>
    <trip id="95" depart="95.00" from="-89290458#1" to="-345736571#1"/>
    <trip id="96" depart="96.00" from="-281921554" to="5108622#1"/>
    <trip id="97" depart="97.00" from="10698327" to="390062310"/>
    <trip id="98" depart="98.00" from="23093009" to="-169095987"/>
    <trip id="99" depart="99.00" from="978314929" to="385405407#2"/>
    <trip id="100" depart="100.00" from="8026683#1" to="537356312#2"/>
    <trip id="101" depart="101.00" from="386827126#1" to="-23528359#0"/>
    <trip id="102" depart="102.00" from="16361889#3" to="-25973410#3"/>
    <trip id="103" depart="103.00" from="-611781710#1" to="-17096975#2"/>
    <trip id="104" depart="104.00" from="-537710741#1" to="9054644"/>
    <trip id="105" depart="105.00" from="-30998701#1" to="314882254#1"/>
    <trip id="106" depart="106.00" from="1157387457" to="-974776881#0"/>
    <trip id="107" depart="107.00" from="692537992" to="9514889#0"/>
    <trip id="108" depart="108.00" from="23108331#0" to="26249173#1"/>
    <trip id="109" depart="109.00" from="-23471135#0" to="-378237362#2"/>
    <trip id="110" depart="110.00" from="8026679#4" to="23275244#3"/>
    <trip id="111" depart="111.00" from="23032792#0" to="275174267#0"/>
    <trip id="112" depart="112.00" from="-17076383#0" to="23312968"/>
    <trip id="114" depart="114.00" from="-23471140#3" to="78043860#5"/>
    <trip id="115" depart="115.00" from="-22946796#1" to="-24511163#8"/>
    <trip id="116" depart="116.00" from="23316365" to="24780603"/>
    <trip id="117" depart="117.00" from="-26683916#0" to="-23275131#3"/>
    <trip id="118" depart="118.00" from="432904378" to="-281956698#0"/>
    <trip id="119" depart="119.00" from="23313215#2" to="23528224#2"/>
    <trip id="120" depart="120.00" from="-881678625#0" to="23312965"/>
    <trip id="121" depart="121.00" from="202499352#0" to="560583353#0"/>
    <trip id="122" depart="122.00" from="-255969099" to="261563373"/>
    <trip id="123" depart="123.00" from="-269782614#2" to="-688229200"/>
    <trip id="124" depart="124.00" from="24424042" to="-385405407#2"/>
    <trip id="125" depart="125.00" from="-387212704" to="280092644"/>
    <trip id="126" depart="126.00" from="-214347556#0" to="135078204#4"/>
    <trip id="127" depart="127.00" from="974776881#3" to="9515059#0"/>
    <trip id="128" depart="128.00" from="-219110057#2" to="-25973410#14"/>
    <trip id="129" depart="129.00" from="-30998701#1" to="558323894"/>
    <trip id="130" depart="130.00" from="40817206#2" to="412792789#5"/>
    <trip id="131" depart="131.00" from="-4807755#1" to="-23528209#8"/>
    <trip id="132" depart="132.00" from="37721065#1" to="25973389#1"/>
    <trip id="133" depart="133.00" from="23439978#5" to="9054646"/>
    <trip id="134" depart="134.00" from="243216876" to="-1078553017#1"/>
    <trip id="135" depart="135.00" from="346002984" to="-385405402"/>
    <trip id="136" depart="136.00" from="243261560" to="57852607#1"/>
    <trip id="137" depart="137.00" from="-23320456#2" to="-23275117#1"/>
    <trip id="138" depart="138.00" from="-23167251#0" to="23163780#1"/>
    <trip id="140" depart="140.00" from="260983469#5" to="-25752783#0"/>
    <trip id="141" depart="141.00" from="23528356#0" to="-31133704#0"/>
    <trip id="142" depart="142.00" from="16361892#2" to="474485725"/>
    <trip id="143" depart="143.00" from="386500264#0" to="-23092999#2"/>
    <trip id="144" depart="144.00" from="-9054575" to="-341509728#2"/>
    <trip id="145" depart="145.00" from="-1035471363" to="30010695"/>
    <trip id="146" depart="146.00" from="23528377#1" to="-30998712#0"/>
    <trip id="147" depart="147.00" from="26632895#0" to="23163775"/>
    <trip id="148" depart="148.00" from="-926867314" to="-1088871993#1"/>
    <trip id="149" depart="149.00" from="-224106070#1" to="432904379#1"/>
    <trip id="150" depart="150.00" from="448974993#2" to="23100757"/>
    <trip id="151" depart="151.00" from="37721067" to="23312958#0"/>
    <trip id="152" depart="152.00" from="-23463897#1" to="-23285074#1"/>
    <trip id="153" depart="153.00" from="-386851191#1" to="45524884#6"/>
    <trip id="154" depart="154.00" from="32197056#2" to="388285825"/>
    <trip id="155" depart="155.00" from="448036751#1" to="-25973388"/>
    <trip id="156" depart="156.00" from="-281901560#0" to="-23163762#1"/>
    <trip id="157" depart="157.00" from="300813715#1" to="432904401"/>
    <trip id="158" depart="158.00" from="-758088380" to="23528238#4"/>
    <trip id="159" depart="159.00" from="-23471091#1" to="548462796"/>
    <trip id="160" depart="160.00" from="387401262#3" to="87506017"/>
    <trip id="161" depart="161.00" from="346002972" to="422603723"/>
    <trip id="162" depart="162.00" from="-124929507#0" to="266652820#0"/>
    <trip id="163" depart="163.00" from="-399038515#1" to="54883017#3"/>
    <trip id="164" depart="164.00" from="341509728#2" to="391056748#0"/>
    <trip id="165" depart="165.00" from="346002972" to="-31133705#1"/>
    <trip id="166" depart="166.00" from="31133705#0" to="-23167251#2"/>
    <trip id="167" depart="167.00" from="391867979#4" to="387401267#1"/>
    <trip id="168" depart="168.00" from="-26249194#1" to="35995707#2"/>
    <trip id="169" depart="169.00" from="12099342#1" to="-387155258"/>
    <trip id="170" depart="170.00" from="31761728" to="-26632895#1"/>
    <trip id="171" depart="171.00" from="-12099346#9" to="-25213867#7"/>
    <trip id="172" depart="172.00" from="-391056746#4" to="391056748#3"/>
    <trip id="173" depart="173.00" from="794514057#4" to="-345736598"/>
    <trip id="174" depart="174.00" from="23724228#3" to="-785383463#1"/>
    <trip id="175" depart="175.00" from="896339463#0" to="23059671#4"/>
    <trip id="176" depart="176.00" from="558323894" to="-23275117#1"/>
    <trip id="177" depart="177.00" from="8026683#4" to="-24447759#1"/>
    <trip id="178" depart="178.00" from="78043860#3" to="-31133704#5"/>
    <trip id="179" depart="179.00" from="-23174414" to="10698327"/>
    <trip id="180" depart="180.00" from="26249175" to="-387296014#1"/>
    <trip id="181" depart="181.00" from="23320720#4" to="202421489#4"/>
    <trip id="182" depart="182.00" from="-560583335#1" to="23275218#0"/>
    <trip id="183" depart="183.00" from="-28675674#1" to="260983469#2"/>
    <trip id="184" depart="184.00" from="-1023926180#1" to="521510809"/>
    <trip id="185" depart="185.00" from="22946880#1" to="26249175"/>
    <trip id="186" depart="186.00" from="26633009" to="24511163#11"/>
    <trip id="187" depart="187.00" from="-474485723#3" to="-202421489#1"/>
    <trip id="188" depart="188.00" from="243261563" to="-400416445#8"/>
    <trip id="189" depart="189.00" from="-387212684#0" to="387212690#0"/>
    <trip id="190" depart="190.00" from="261543528" to="-38550860#2"/>
    <trip id="191" depart="191.00" from="-387155258" to="-86704644"/>
    <trip id="192" depart="192.00" from="-654570576#0" to="-378237360"/>
    <trip id="193" depart="193.00" from="-23275256" to="-9514888#10"/>
    <trip id="194" depart="194.00" from="560583353#0" to="25073197#0"/>
    <trip id="195" depart="195.00" from="448974989" to="23471139#2"/>
    <trip id="196" depart="196.00" from="-378237362#3" to="23147277#1"/>
    <trip id="197" depart="197.00" from="-10230452#2" to="-36774581"/>
    <trip id="198" depart="198.00" from="-94166194#1" to="23275256"/>
    <trip id="199" depart="199.00" from="243216879" to="146911733"/>
    <trip id="200" depart="200.00" from="1067394662#1" to="-25973410#3"/>
    <trip id="201" depart="201.00" from="146908203#2" to="4590682#1"/>
    <trip id="202" depart="202.00" from="32197056#1" to="-23528397#0"/>
    <trip id="203" depart="203.00" from="-23032791#0" to="214347556#0"/>
    <trip id="204" depart="204.00" from="23528352#3" to="-411123214#1"/>
    <trip id="205" depart="205.00" from="346002984" to="280092625#1"/>
    <trip id="206" depart="206.00" from="24436947" to="-26614511#0"/>
    <trip id="207" depart="207.00" from="-25415491" to="-124051723#3"/>
    <trip id="208" depart="208.00" from="-27531049#3" to="16361889#0"/>
    <trip id="209" depart="209.00" from="386832702" to="-214347556#0"/>
    <trip id="210" depart="210.00" from="-8026683#2" to="23528370"/>
    <trip id="211" depart="211.00" from="-25213867#5" to="25752783#0"/>
    <trip id="212" depart="212.00" from="167641329" to="-280128590"/>
    <trip id="213" depart="213.00" from="243261557" to="-10424183#3"/>
    <trip id="214" depart="214.00" from="273169647#0" to="30010175"/>
    <trip id="215" depart="215.00" from="-23167251#0" to="-998175513"/>
    <trip id="216" depart="216.00" from="-23724230#3" to="694116204#2"/>
    <trip id="217" depart="217.00" from="186037710" to="-168353186#3"/>
    <trip id="218" depart="218.00" from="-280922319" to="387212690#2"/>
    <trip id="219" depart="219.00" from="117527770#0" to="346002972"/>
    <trip id="220" depart="220.00" from="243261573" to="911891312"/>
    <trip id="221" depart="221.00" from="23316365" to="613710373"/>
    <trip id="222" depart="222.00" from="432904388#7" to="23471089"/>
    <trip id="223" depart="223.00" from="261543528" to="184749081#2"/>
    <trip id="224" depart="224.00" from="37181837#0" to="23147277#1"/>
    <trip id="225" depart="225.00" from="442274130" to="27297291"/>
    <trip id="226" depart="226.00" from="151267552" to="-30010180"/>
    <trip id="227" depart="227.00" from="-280092614" to="23999290"/>
    <trip id="228" depart="228.00" from="282513344#3" to="22889926#2"/>
    <trip id="229" depart="229.00" from="23528224#2" to="-324058230#1"/>
    <trip id="230" depart="230.00" from="-22910596#0" to="-366030056#0"/>
    <trip id="231" depart="231.00" from="-31133710" to="-387401267#5"/>
    <trip id="232" depart="232.00" from="23032788#1" to="-23320661#1"/>
    <trip id="233" depart="233.00" from="-26615070#1" to="255969099"/>
    <trip id="234" depart="234.00" from="258841359#0" to="-183419042#9"/>
    <trip id="236" depart="236.00" from="-8026683#7" to="-258841468#0"/>
    <trip id="237" depart="237.00" from="-881678625#7" to="474485723#3"/>
    <trip id="238" depart="238.00" from="23275175#2" to="25708882#2"/>
    <trip id="239" depart="239.00" from="387212695#0" to="29214751"/>
    <trip id="240" depart="240.00" from="-538358998#1" to="-10698330#0"/>
    <trip id="241" depart="241.00" from="-448036751#0" to="280922319"/>
    <trip id="242" depart="242.00" from="387212679#1" to="686955221"/>
    <trip id="243" depart="243.00" from="-8812305#0" to="274543260#0"/>
    <trip id="244" depart="244.00" from="23059671#3" to="23439972#1"/>
    <trip id="245" depart="245.00" from="-26249172#4" to="-263325721"/>
    <trip id="246" depart="246.00" from="10230452#3" to="-13622251#0"/>
    <trip id="247" depart="247.00" from="-4066943#2" to="25213490"/>
    <trip id="248" depart="248.00" from="-696225646#1" to="-23528352#5"/>
    <trip id="249" depart="249.00" from="135078204#1" to="-23285074#1"/>
    <trip id="250" depart="250.00" from="23471139#4" to="-135078204#0"/>
    <trip id="251" depart="251.00" from="-57852607#1" to="23220042"/>
    <trip id="252" depart="252.00" from="-135078204#0" to="243216815"/>
    <trip id="253" depart="253.00" from="-23320467#3" to="13655071#1"/>
    <trip id="254" depart="254.00" from="-167641329" to="-553076445#2"/>
    <trip id="255" depart="255.00" from="-25973386#0" to="-393019010#0"/>
    <trip id="256" depart="256.00" from="281956697" to="-553076445#2"/>
    <trip id="257" depart="257.00" from="27396983" to="379537578"/>
    <trip id="258" depart="258.00" from="-281966915#3" to="-22946801#2"/>
    <trip id="259" depart="259.00" from="-1175994829" to="23093006"/>
    <trip id="260" depart="260.00" from="990451065" to="-448036755#0"/>
    <trip id="261" depart="261.00" from="243216815" to="31133710"/>
    <trip id="262" depart="262.00" from="243216837" to="281956697"/>
    <trip id="263" depart="263.00" from="592426952" to="-25531541#2"/>
    <trip id="264" depart="264.00" from="-118976653" to="-23471135#0"/>
    <trip id="265" depart="265.00" from="-23275244#3" to="24509652#2"/>
    <trip id="266" depart="266.00" from="23163782#0" to="-26249176#2"/>
    <trip id="267" depart="267.00" from="25497525" to="295849087#1"/>
    <trip id="268" depart="268.00" from="-23528356#2" to="23463903#1"/>
    <trip id="269" depart="269.00" from="26734306#1" to="-23275117#0"/>
    <trip id="270" depart="270.00" from="346002995" to="787951054"/>
    <trip id="271" depart="271.00" from="-23167254#1" to="-130176623"/>
    <trip id="272" depart="272.00" from="-387212679#1" to="25073197#0"/>
    <trip id="273" depart="273.00" from="692610318#1" to="-70531942#3"/>
    <trip id="274" depart="274.00" from="25973410#3" to="-224106070#4"/>
    <trip id="275" depart="275.00" from="25213867#5" to="23528352#5"/>
    <trip id="276" depart="276.00" from="-23163759#6" to="301730468"/>
    <trip id="277" depart="277.00" from="387155257#1" to="23320724#1"/>
    <trip id="278" depart="278.00" from="-23275165#2" to="9054581#2"/>
    <trip id="279" depart="279.00" from="30998710#4" to="-436153519"/>
    <trip id="280" depart="280.00" from="-926867318" to="-5108622#2"/>
    <trip id="281" depart="281.00" from="17096975#2" to="-431767318#0"/>
    <trip id="282" depart="282.00" from="386831075" to="37181836#0"/>
    <trip id="283" depart="283.00" from="-23163782#2" to="78043860#5"/>
    <trip id="284" depart="284.00" from="23528364#1" to="378237359#1"/>
    <trip id="285" depart="285.00" from="258841359#8" to="10698330#4"/>
    <trip id="286" depart="286.00" from="26520499" to="787951054"/>
    <trip id="287" depart="287.00" from="-31133704#6" to="346002984"/>
    <trip id="288" depart="288.00" from="22946807#3" to="16361899#8"/>
    <trip id="289" depart="289.00" from="10230452#2" to="26614511#0"/>
    <trip id="290" depart="290.00" from="-31133704#1" to="387296018"/>
    <trip id="291" depart="291.00" from="37181837#2" to="-23032828#1"/>
    <trip id="292" depart="292.00" from="40817206#7" to="-280128590"/>
    <trip id="293" depart="293.00" from="130569446" to="23471056#2"/>
    <trip id="294" depart="294.00" from="-537710741#1" to="-13622251#0"/>
    <trip id="295" depart="295.00" from="387155258" to="-24508781#1"/>
    <trip id="296" depart="296.00" from="-25973386#0" to="345736590-AddedOffRampEdge"/>
    <trip id="297" depart="297.00" from="-412792787" to="419654735#2"/>
    <trip id="298" depart="298.00" from="25576460#0" to="-33564321"/>
    <trip id="299" depart="299.00" from="-1088871993#1" to="611784190"/>
    <trip id="300" depart="300.00" from="-23032792#3" to="26249179"/>
    <trip id="301" depart="301.00" from="16361892#3" to="282513344#0"/>
    <trip id="302" depart="302.00" from="25213867#5" to="243216837"/>
    <trip id="303" depart="303.00" from="16361899#5" to="333649636"/>
    <trip id="304" depart="304.00" from="-23093183" to="-26520499"/>
    <trip id="305" depart="305.00" from="25214012#0" to="-387155261#0"/>
    <trip id="306" depart="306.00" from="23275131#3" to="158515349#1"/>
    <trip id="307" depart="307.00" from="22793821#1" to="10230452#1"/>
    <trip id="308" depart="308.00" from="26684108#3" to="-400653105"/>
    <trip id="309" depart="309.00" from="25643797" to="-31626930"/>
    <trip id="310" depart="310.00" from="-281956705#6" to="-23275165#1"/>
    <trip id="311" depart="311.00" from="-25114845#1" to="-23275131#3"/>
    <trip id="312" depart="312.00" from="22946794#0" to="290461455#1"/>
    <trip id="313" depart="313.00" from="-24509652#3" to="-261543560#0"/>
    <trip id="314" depart="314.00" from="16361889#0" to="26520499"/>
    <trip id="316" depart="316.00" from="-345736571#1" to="-23151405#1"/>
    <trip id="317" depart="317.00" from="-25213867#3" to="-26632895#0"/>
    <trip id="318" depart="318.00" from="-24436946#2" to="-1103106740#2"/>
    <trip id="319" depart="319.00" from="22910596#2" to="-323107046"/>
    <trip id="320" depart="320.00" from="823062063#6" to="23163780#2"/>
    <trip id="321" depart="321.00" from="25415479#0" to="-23275244#3"/>
    <trip id="322" depart="322.00" from="390216938" to="169127813#4"/>
    <trip id="323" depart="323.00" from="391867979#6" to="23275169#1"/>
    <trip id="324" depart="324.00" from="13622251#0" to="1088879786#1"/>
    <trip id="325" depart="325.00" from="-24509652#1" to="-169127787#0"/>
    <trip id="326" depart="326.00" from="560583354" to="16361891#1"/>
    <trip id="327" depart="327.00" from="352842717#0" to="-785623013#0"/>
    <trip id="328" depart="328.00" from="-219110057#6" to="23528364#2"/>
    <trip id="329" depart="329.00" from="-169127813#2" to="-23471056#2"/>
    <trip id="330" depart="330.00" from="23163779#0" to="-386831074"/>
    <trip id="331" depart="331.00" from="9514888#3" to="-23275131#1"/>
    <trip id="332" depart="332.00" from="281956714" to="23463903#0"/>
    <trip id="333" depart="333.00" from="31157172#6" to="-26614713"/>
    <trip id="334" depart="334.00" from="202499351#0" to="12098881#7"/>
    <trip id="335" depart="335.00" from="10698326#2" to="387498728#2"/>
    <trip id="336" depart="336.00" from="921020467#2" to="-387155258"/>
    <trip id="337" depart="337.00" from="23471139#0" to="23471056#0"/>
    <trip id="338" depart="338.00" from="26615070#1" to="60430587"/>
    <trip id="339" depart="339.00" from="-25752843#3" to="-25973389#1"/>
    <trip id="340" depart="340.00" from="243261560" to="-23528207#9"/>
    <trip id="341" depart="341.00" from="-23724225" to="-224106070#0"/>
    <trip id="342" depart="342.00" from="-1035471353" to="12098881#7"/>
    <trip id="343" depart="343.00" from="23312971#0" to="-37432223"/>
    <trip id="344" depart="344.00" from="-26615070#2" to="25973410#3"/>
    <trip id="345" depart="345.00" from="25643797" to="124929507#0"/>
    <trip id="346" depart="346.00" from="25073197#2" to="51445509#0"/>
    <trip id="347" depart="347.00" from="31133710" to="23528344#2"/>
    <trip id="348" depart="348.00" from="243261560" to="558323894"/>
    <trip id="349" depart="349.00" from="-9054581#2" to="23100738#1"/>
    <trip id="350" depart="350.00" from="243216794" to="4807750"/>
    <trip id="351" depart="351.00" from="366030058#2" to="-204724401"/>
    <trip id="352" depart="352.00" from="-23528352#3" to="-387212679#1"/>
    <trip id="353" depart="353.00" from="26738365#1" to="23275122#0"/>
    <trip id="354" depart="354.00" from="-366030054#1" to="-23275218#0"/>
    <trip id="355" depart="355.00" from="25212081#0" to="258841468#3"/>
    <trip id="356" depart="356.00" from="570009376#0" to="182055214"/>
    <trip id="357" depart="357.00" from="163737798" to="-22946794#0"/>
    <trip id="358" depart="358.00" from="-158515349#1" to="10424183#4"/>
    <trip id="359" depart="359.00" from="-387401261" to="-28675674#1"/>
    <trip id="361" depart="361.00" from="37721067" to="23275175#9"/>
    <trip id="362" depart="362.00" from="611781710#0" to="990451065"/>
    <trip id="363" depart="363.00" from="24436946#0" to="-31157172#5"/>
    <trip id="364" depart="364.00" from="-16361889#0" to="281956707"/>
    <trip id="365" depart="365.00" from="13655071#1" to="243261558"/>
    <trip id="366" depart="366.00" from="4807755#0" to="-24508781#1"/>
    <trip id="367" depart="367.00" from="23275210#0" to="23724228#3"/>
    <trip id="368" depart="368.00" from="16361899#6" to="-23059802"/>
    <trip id="369" depart="369.00" from="-432904419#0" to="-40817206#1"/>
    <trip id="370" depart="370.00" from="24390152#1" to="387401262#3"/>
    <trip id="371" depart="371.00" from="-391867979#2" to="25596853"/>
    <trip id="372" depart="372.00" from="-35995707#0" to="59054089#4"/>
    <trip id="373" depart="373.00" from="346002978" to="23163759#6"/>
    <trip id="374" depart="374.00" from="1157387457" to="-387296020"/>
    <trip id="375" depart="375.00" from="-387401262#4" to="8026683#5"/>
    <trip id="376" depart="376.00" from="-692537991#0" to="208865182"/>
    <trip id="377" depart="377.00" from="911891320" to="243261573"/>
    <trip id="378" depart="378.00" from="23032792#3" to="-899604572#1"/>
    <trip id="379" depart="379.00" from="-24511163#7" to="-474485730#0"/>
    <trip id="380" depart="380.00" from="27531049#3" to="23528344#5"/>
    <trip id="381" depart="381.00" from="280092647" to="-25752783#0"/>
    <trip id="382" depart="382.00" from="23093006" to="538358997#1"/>
    <trip id="383" depart="383.00" from="10417273#1" to="258841359#1"/>
    <trip id="384" depart="384.00" from="-23275169#0" to="823062063#2"/>
    <trip id="385" depart="385.00" from="23439906#2" to="-27531049#1"/>
    <trip id="386" depart="386.00" from="-23528207#8" to="23163762#2"/>
    <trip id="387" depart="387.00" from="23094757" to="-23093183"/>
    <trip id="388" depart="388.00" from="94166194#1" to="4807777"/>
    <trip id="389" depart="389.00" from="12099346#5" to="-23275124#0"/>
    <trip id="390" depart="390.00" from="37181840#0" to="176337397"/>
    <trip id="391" depart="391.00" from="25973412#1" to="199025699"/>
    <trip id="392" depart="392.00" from="-31157172#3" to="384338153#0"/>
    <trip id="393" depart="393.00" from="88457772#4" to="-280102089#1"/>
    <trip id="394" depart="394.00" from="23093191#0" to="-56255592"/>
    <trip id="395" depart="395.00" from="4807837#0" to="191708800"/>
    <trip id="396" depart="396.00" from="4066943#2" to="391056747"/>
    <trip id="397" depart="397.00" from="-317594345#16" to="33098786"/>
    <trip id="398" depart="398.00" from="-8026683#4" to="560583335#1"/>
    <trip id="399" depart="399.00" from="173309329#1" to="37178375"/>
    <trip id="400" depart="400.00" from="-345736571#1" to="-383983719"/>
    <trip id="401" depart="401.00" from="23275231#0" to="978314929"/>
    <trip id="402" depart="402.00" from="16361899#0" to="-23471056#0"/>
    <trip id="403" depart="403.00" from="22946880#2" to="-432904422#2"/>
    <trip id="404" depart="404.00" from="23094756#0" to="23094825"/>
    <trip id="405" depart="405.00" from="1157387459#0" to="-388285827#0"/>
    <trip id="406" depart="406.00" from="-24608218" to="25752843#1"/>
    <trip id="407" depart="407.00" from="23196349" to="-26733995#2"/>
    <trip id="408" depart="408.00" from="295849087#2" to="-16361892#1"/>
    <trip id="409" depart="409.00" from="26683925#1" to="25973407#0"/>