<?xml version="1.0" encoding="UTF-8"?>

<!-- generated on 2023-11-14 16:26:45.915587 by randomTrips.py v1_19_0+0000-baa66a0f364
<configuration>
    <net-file value="osm.net.xml.gz"/>
    <end value="36000000.0"/>
    <flows value="25"/>
</configuration>
-->

<routes xmlns:xsi="http://www.w3.org/2001/XMLSchema-instance" xsi:noNamespaceSchemaLocation="http://sumo.dlr.de/xsd/routes_file.xsd">
    <flow id="0" begin="0" end="36000000" period="125" from="23471029" to="-124929507#0"/>
    <flow id="1" begin="0" end="36000000" period="125" from="-31155462#2" to="-26614713"/>
    <flow id="2" begin="0" end="36000000" period="125" from="266652820#0" to="24957159"/>
    <flow id="3" begin="0" end="36000000" period="125" from="44829112" to="-23032883#1"/>
    <flow id="4" begin="0" end="36000000" period="125" from="-8026844#0" to="-135078205"/>
    <flow id="5" begin="0" end="36000000" period="125" from="-25973412#0" to="173309329#1"/>
    <flow id="6" begin="0" end="36000000" period="125" from="-128115937#0" to="-25643797"/>
    <flow id="7" begin="0" end="36000000" period="125" from="23528216#3" to="22946880#1"/>
    <flow id="8" begin="0" end="36000000" period="125" from="-261543560#0" to="23275120#0"/>
    <flow id="9" begin="0" end="36000000" period="125" from="35359364#1" to="-105914659#1"/>
    <flow id="10" begin="0" end="36000000" period="125" from="345744158#0" to="25752843#5"/>
    <flow id="11" begin="0" end="36000000" period="125" from="-403685569#1" to="-23528207#6"/>
    <flow id="12" begin="0" end="36000000" period="125" from="697552595#1" to="-412792789#2"/>
    <flow id="13" begin="0" end="36000000" period="125" from="-23059678#4" to="-23108331#5"/>
    <flow id="14" begin="0" end="36000000" period="125" from="387401253#1" to="23312960#1"/>
    <flow id="15" begin="0" end="36000000" period="125" from="346002998" to="26633009"/>
    <flow id="16" begin="0" end="36000000" period="125" from="202499351#0" to="87506017"/>
    <flow id="17" begin="0" end="36000000" period="125" from="-4807774#1" to="23032829#2"/>
    <flow id="18" begin="0" end="36000000" period="125" from="383983719" to="23320593#5"/>
    <flow id="19" begin="0" end="36000000" period="125" from="400416445#10" to="23167251#3"/>
    <flow id="20" begin="0" end="36000000" period="125" from="25752843#3" to="-168353186#1"/>
    <flow id="21" begin="0" end="36000000" period="125" from="-26520944#3" to="-37177743#1"/>
    <flow id="22" begin="0" end="36000000" period="125" from="-22946801#1" to="-269782617#1"/>
    <flow id="23" begin="0" end="36000000" period="125" from="-23111554#2" to="-331752492#1"/>
    <flow id="24" begin="0" end="36000000" period="125" from="23439978#2" to="-4807746#3"/>
    <flow id="25" begin="0" end="36000000" period="125" from="-474485723#0" to="-25973410#14"/>
    <flow id="26" begin="0" end="36000000" period="125" from="-30010699#1" to="5783284#1"/>
    <flow id="27" begin="0" end="36000000" period="125" from="23528209#3" to="23313215#5"/>
    <flow id="28" begin="0" end="36000000" period="125" from="-23528344#5" to="26632895#1"/>
    <flow id="29" begin="0" end="36000000" period="125" from="-23528209#5" to="-538358998#1"/>
    <flow id="30" begin="0" end="36000000" period="125" from="921020465#1" to="23528209#1"/>
    <flow id="31" begin="0" end="36000000" period="125" from="22946880#5" to="25214142#0"/>
    <flow id="32" begin="0" end="36000000" period="125" from="387212684#0" to="30998712#2"/>
    <flow id="33" begin="0" end="36000000" period="125" from="-265491171" to="-138203748#1"/>
    <flow id="34" begin="0" end="36000000" period="125" from="-386832703#1" to="-31157172#8"/>
    <flow id="35" begin="0" end="36000000" period="125" from="-258841359#7" to="611781710#0"/>
    <flow id="36" begin="0" end="36000000" period="125" from="422603723" to="-387401267#1"/>
    <flow id="37" begin="0" end="36000000" period="125" from="23528284#8" to="-675777502"/>
    <flow id="38" begin="0" end="36000000" period="125" from="4807835#0" to="12099342#2"/>
    <flow id="39" begin="0" end="36000000" period="125" from="-29701092#1" to="-281962648#3"/>
    <flow id="40" begin="0" end="36000000" period="125" from="23032792#1" to="-30998714"/>
    <flow id="41" begin="0" end="36000000" period="125" from="23163780#1" to="474485725"/>
    <flow id="42" begin="0" end="36000000" period="125" from="-573245212#1" to="-26520921#3"/>
    <flow id="43" begin="0" end="36000000" period="125" from="9515059#8" to="182054708#0"/>
    <flow id="44" begin="0" end="36000000" period="125" from="-23059671#0" to="-169095987"/>
    <flow id="45" begin="0" end="36000000" period="125" from="-23163787#2" to="23439978#0"/>
    <flow id="46" begin="0" end="36000000" period="125" from="317594345#18" to="-937763472"/>
    <flow id="47" begin="0" end="36000000" period="125" from="-187997840#1" to="-54883018#1"/>
    <flow id="48" begin="0" end="36000000" period="125" from="9514889#2" to="204724398"/>
    <flow id="49" begin="0" end="36000000" period="125" from="823062063#4" to="400653105"/>
</routes>
