<?xml version="1.0" ?>
<routes>
  <vType id="passenger" vClass="passenger"/>
  <vType id="bicycle" vClass="bicycle"/>
  <vType id="motorcycle" vClass="motorcycle"/>
  <person id="p0" depart="0.00">
    <personTrip from="-493291933#1" to="-23439972#1" line="ANY" modes="public"/>
    <stop duration="74" actType="singing"/>
    <personTrip from="-23439972#1" to="25973402#1" line="ANY" modes="public"/>
    <stop duration="36" actType="singing"/>
    <personTrip from="25973402#1" to="-23439972#1" line="ANY" modes="public"/>
    <stop duration="53" actType="singing"/>
  </person>
  <person id="p1" depart="0.00">
    <personTrip from="-23151868#0" to="-692621726" line="ANY" modes="public"/>
    <stop duration="34" actType="singing"/>
    <personTrip from="-692621726" to="38501726#1" line="ANY" vTypes="passenger"/>
    <stop duration="75" actType="singing"/>
    <personTrip from="38501726#1" to="158355467#9" line="ANY" modes="public"/>
    <stop duration="125" actType="singing"/>
  </person>
  <person id="p2" depart="0.00">
    <personTrip from="23093209#1" to="9515059#0" line="ANY" modes="public"/>
    <personTrip from="9515059#0" to="-31133703#0" line="ANY" vTypes="passenger"/>
    <stop duration="70" actType="singing"/>
    <personTrip from="-31133703#0" to="23093209#1" line="ANY" modes="public"/>
    <stop duration="42" actType="singing"/>
    <personTrip from="23093209#1" to="-31133703#0" line="ANY" modes="public"/>
    <stop duration="90" actType="singing"/>
  </person>
  <person id="p3" depart="0.00">
    <personTrip from="115714373" to="921020465#1" line="ANY" modes="public"/>
    <stop duration="107" actType="singing"/>
    <personTrip from="921020465#1" to="115714373" line="ANY" modes="public"/>
    <stop duration="43" actType="singing"/>
    <personTrip from="115714373" to="-23059795" line="ANY" modes="public"/>
    <personTrip from="-23059795" to="25816922#0" line="ANY" vTypes="bicycle"/>
    <stop duration="36" actType="singing"/>
  </person>
  <person id="p4" depart="0.00">
    <personTrip from="-169127813#0" to="118976648#1" line="ANY" modes="public"/>
    <stop duration="134" actType="singing"/>
    <personTrip from="118976648#1" to="386832703#0" line="ANY" modes="public"/>
    <stop duration="31" actType="singing"/>
    <personTrip from="386832703#0" to="-169127813#0" line="ANY" modes="public"/>
    <stop duration="43" actType="singing"/>
  </person>
  <person id="p5" depart="0.00">
    <personTrip from="1024863327#0" to="-25213867#4" line="ANY" modes="public"/>
    <personTrip from="-25213867#4" to="23320720#6" line="ANY" vTypes="motorcycle"/>
    <stop duration="87" actType="singing"/>
    <personTrip from="23320720#6" to="946464565#0" line="ANY" modes="public"/>
    <stop duration="31" actType="singing"/>
    <personTrip from="946464565#0" to="23151869#1" line="ANY" modes="public"/>
    <stop duration="77" actType="singing"/>
  </person>
  <person id="p6" depart="0.00">
    <personTrip from="10417272#0" to="211686719" line="ANY" modes="public"/>
    <personTrip from="211686719" to="-263264910#0" line="ANY" vTypes="motorcycle"/>
    <stop duration="47" actType="singing"/>
    <personTrip from="-263264910#0" to="202499354" line="ANY" modes="public"/>
    <personTrip from="202499354" to="4811453#4" line="ANY" vTypes="passenger"/>
    <stop duration="100" actType="singing"/>
    <personTrip from="4811453#4" to="23320738#0" line="ANY" vTypes="passenger"/>
    <stop duration="33" actType="singing"/>
  </person>
  <person id="p7" depart="0.00">
    <personTrip from="-692610285#0" to="109592901" line="ANY" modes="public"/>
    <personTrip from="109592901" to="170499455#4" line="ANY" vTypes="passenger"/>
    <stop duration="36" actType="singing"/>
    <personTrip from="170499455#4" to="-699824715#2" line="ANY" modes="public"/>
    <stop duration="72" actType="singing"/>
    <personTrip from="-699824715#2" to="694012900#0" line="ANY" modes="public"/>
    <stop duration="48" actType="singing"/>
  </person>
  <person id="p8" depart="0.00">
    <personTrip from="939228251" to="24620747#0" line="ANY" modes="public"/>
    <stop duration="87" actType="singing"/>
    <personTrip from="24620747#0" to="939228251" line="ANY" modes="public"/>
    <personTrip from="939228251" to="939228251" line="ANY" vTypes="motorcycle"/>
    <stop duration="43" actType="singing"/>
    <personTrip from="939228251" to="702995499" line="ANY" modes="public"/>
    <stop duration="63" actType="singing"/>
  </person>
  <person id="p9" depart="0.00">
    <personTrip from="-16361899#9" to="56256170#2" line="ANY" modes="public"/>
    <stop duration="28" actType="singing"/>
    <personTrip from="56256170#2" to="-424440751#3" line="ANY" modes="public"/>
    <personTrip from="-424440751#3" to="-23320404#6" line="ANY" vTypes="motorcycle"/>
    <stop duration="90" actType="singing"/>
    <personTrip from="-23320404#6" to="56256170#2" line="ANY" vTypes="motorcycle"/>
    <stop duration="32" actType="singing"/>
  </person>
</routes>
