<?xml version="1.0" ?>
<routes>
  <vType id="passenger" vClass="passenger"/>
  <vType id="bicycle" vClass="bicycle"/>
  <vType id="motorcycle" vClass="motorcycle"/>
  <person id="p0" depart="0.00">
    <personTrip from="202499350" to="169127821#4" line="ANY" vTypes="bicycle"/>
    <stop duration="34737" actType="singing"/>
    <personTrip from="169127821#4" to="202499350" line="ANY" vTypes="passenger"/>
    <stop duration="4952" actType="singing"/>
    <personTrip from="202499350" to="-60430429#1" line="ANY" vTypes="motorcycle"/>
    <stop duration="924" actType="singing"/>
    <personTrip from="-60430429#1" to="202499350" line="ANY" vTypes="bicycle"/>
    <stop duration="8019" actType="singing"/>
    <personTrip from="202499350" to="-60430429#1" line="ANY" modes="public"/>
    <stop duration="976" actType="singing"/>
  </person>
  <person id="p1" depart="0.00">
    <personTrip from="56255595#1" to="692610326#3" line="ANY" modes="public"/>
    <personTrip from="692610326#3" to="692610326#2" line="ANY" vTypes="passenger"/>
    <stop duration="881" actType="singing"/>
    <personTrip from="692610326#2" to="56255595#1" line="ANY" modes="public"/>
    <stop duration="7306" actType="singing"/>
    <personTrip from="56255595#1" to="-262919195" line="ANY" modes="public"/>
    <stop duration="34074" actType="singing"/>
    <personTrip from="-262919195" to="-24511163#11" line="ANY" modes="public"/>
    <personTrip from="-24511163#11" to="263265818#1" line="ANY" vTypes="passenger"/>
    <stop duration="9445" actType="singing"/>
    <personTrip from="263265818#1" to="56255595#1" line="ANY" modes="public"/>
    <stop duration="4953" actType="singing"/>
  </person>
  <person id="p2" depart="0.00">
    <personTrip from="185494476#0" to="-366030058#2" line="ANY" modes="public"/>
    <stop duration="924" actType="singing"/>
    <personTrip from="-366030058#2" to="441764367#0" line="ANY" modes="public"/>
    <stop duration="3673" actType="singing"/>
    <personTrip from="441764367#0" to="185494476#0" line="ANY" vTypes="motorcycle"/>
    <stop duration="4996" actType="singing"/>
    <personTrip from="185494476#0" to="40817206#7" line="ANY" modes="public"/>
    <personTrip from="40817206#7" to="-366030058#2" line="ANY" vTypes="passenger"/>
    <stop duration="1063" actType="singing"/>
    <personTrip from="-366030058#2" to="185494476#0" line="ANY" modes="public"/>
    <stop duration="7946" actType="singing"/>
  </person>
  <person id="p3" depart="0.00">
    <personTrip from="23528284#16" to="37274220" line="ANY" vTypes="motorcycle"/>
    <stop duration="34269" actType="singing"/>
    <personTrip from="37274220" to="23528284#16" line="ANY" modes="public"/>
    <stop duration="5017" actType="singing"/>
    <personTrip from="23528284#16" to="692610317#2" line="ANY" modes="public"/>
    <stop duration="9849" actType="singing"/>
    <personTrip from="692610317#2" to="23528284#16" line="ANY" modes="public"/>
    <stop duration="6181" actType="singing"/>
    <personTrip from="23528284#16" to="37274220" line="ANY" modes="public"/>
    <stop duration="29339" actType="singing"/>
  </person>
  <person id="p4" depart="0.00">
    <personTrip from="124806871#0" to="-24957194#0" line="ANY" vTypes="bicycle"/>
    <stop duration="11884" actType="singing"/>
    <personTrip from="-24957194#0" to="24608272#0" line="ANY" modes="public"/>
    <stop duration="29834" actType="singing"/>
    <personTrip from="24608272#0" to="-24957194#0" line="ANY" vTypes="motorcycle"/>
    <stop duration="6402" actType="singing"/>
    <personTrip from="-24957194#0" to="4807766" line="ANY" vTypes="bicycle"/>
    <stop duration="1047" actType="singing"/>
    <personTrip from="4807766" to="124806871#0" line="ANY" vTypes="motorcycle"/>
    <stop duration="6931" actType="singing"/>
  </person>
  <person id="p5" depart="0.00">
    <personTrip from="-13622256" to="12099346#4" line="ANY" modes="public"/>
    <personTrip from="12099346#4" to="231912753" line="ANY" vTypes="passenger"/>
    <stop duration="5695" actType="singing"/>
    <personTrip from="231912753" to="35995706" line="ANY" vTypes="bicycle"/>
    <stop duration="975" actType="singing"/>
    <personTrip from="35995706" to="231912753" line="ANY" modes="public"/>
    <stop duration="4475" actType="singing"/>
    <personTrip from="231912753" to="35995706" line="ANY" modes="public"/>
    <stop duration="821" actType="singing"/>
    <personTrip from="35995706" to="474485730#0" line="ANY" modes="public"/>
    <stop duration="30116" actType="singing"/>
  </person>
  <person id="p6" depart="0.00">
    <personTrip from="183047036#3" to="580616774#0" line="ANY" modes="public"/>
    <personTrip from="580616774#0" to="-36779459#1" line="ANY" vTypes="motorcycle"/>
    <stop duration="987" actType="singing"/>
    <personTrip from="-36779459#1" to="17076378#0" line="ANY" modes="public"/>
    <stop duration="34479" actType="singing"/>
    <personTrip from="17076378#0" to="-36779459#1" line="ANY" modes="public"/>
    <stop duration="902" actType="singing"/>
    <personTrip from="-36779459#1" to="-282981260#3" line="ANY" modes="public"/>
    <stop duration="6697" actType="singing"/>
    <personTrip from="-282981260#3" to="-36779459#1" line="ANY" modes="public"/>
    <stop duration="828" actType="singing"/>
  </person>
  <person id="p7" depart="0.00">
    <personTrip from="-383945636#2" to="70531944#0" line="ANY" vTypes="motorcycle"/>
    <stop duration="33358" actType="singing"/>
    <personTrip from="70531944#0" to="261543549#0" line="ANY" modes="public"/>
    <personTrip from="261543549#0" to="-383945636#2" line="ANY" vTypes="bicycle"/>
    <stop duration="6381" actType="singing"/>
    <personTrip from="-383945636#2" to="70531944#0" line="ANY" vTypes="motorcycle"/>
    <stop duration="31377" actType="singing"/>
    <personTrip from="70531944#0" to="261543549#0" line="ANY" modes="public"/>
    <personTrip from="261543549#0" to="-383945636#2" line="ANY" vTypes="passenger"/>
    <stop duration="8376" actType="singing"/>
    <personTrip from="-383945636#2" to="283022113#6" line="ANY" vTypes="bicycle"/>
    <stop duration="5117" actType="singing"/>
  </person>
  <person id="p8" depart="0.00">
    <personTrip from="9514888#5" to="30998701#1" line="ANY" vTypes="motorcycle"/>
    <stop duration="648" actType="singing"/>
    <personTrip from="30998701#1" to="185494495" line="ANY" modes="public"/>
    <stop duration="5762" actType="singing"/>
    <personTrip from="185494495" to="317594580" line="ANY" modes="public"/>
    <stop duration="33129" actType="singing"/>
    <personTrip from="317594580" to="-37181840#1" line="ANY" modes="public"/>
    <personTrip from="-37181840#1" to="185494495" line="ANY" vTypes="motorcycle"/>
    <stop duration="7441" actType="singing"/>
    <personTrip from="185494495" to="-9514888#8" line="ANY" modes="public"/>
    <personTrip from="-9514888#8" to="9514888#5" line="ANY" vTypes="motorcycle"/>
    <stop duration="6187" actType="singing"/>
  </person>
  <person id="p9" depart="0.00">
    <personTrip from="-23471140#0" to="558422642#2" line="ANY" vTypes="motorcycle"/>
    <stop duration="8704" actType="singing"/>
    <personTrip from="558422642#2" to="275458714#1" line="ANY" modes="public"/>
    <stop duration="766" actType="singing"/>
    <personTrip from="275458714#1" to="12098881#4" line="ANY" modes="public"/>
    <personTrip from="12098881#4" to="-23471140#0" line="ANY" vTypes="passenger"/>
    <stop duration="7937" actType="singing"/>
    <personTrip from="-23471140#0" to="558422642#2" line="ANY" vTypes="motorcycle"/>
    <stop duration="9884" actType="singing"/>
    <personTrip from="558422642#2" to="88289460#0" line="ANY" modes="public"/>
    <stop duration="31441" actType="singing"/>
  </person>
  <person id="p10" depart="0.00">
    <personTrip from="399038515#3" to="-388285824#1" line="ANY" vTypes="motorcycle"/>
    <stop duration="7509" actType="singing"/>
    <personTrip from="-388285824#1" to="32298002#1" line="ANY" modes="public"/>
    <stop duration="30171" actType="singing"/>
    <personTrip from="32298002#1" to="399038515#3" line="ANY" modes="public"/>
    <stop duration="7954" actType="singing"/>
    <personTrip from="399038515#3" to="32298002#1" line="ANY" modes="public"/>
    <stop duration="35056" actType="singing"/>
    <personTrip from="32298002#1" to="399038515#3" line="ANY" modes="public"/>
    <stop duration="6041" actType="singing"/>
  </person>
  <person id="p11" depart="0.00">
    <personTrip from="275477749" to="45524884#1" line="ANY" modes="public"/>
    <personTrip from="45524884#1" to="32808778#0" line="ANY" vTypes="motorcycle"/>
    <stop duration="10359" actType="singing"/>
    <personTrip from="32808778#0" to="275477749" line="ANY" vTypes="motorcycle"/>
    <stop duration="7546" actType="singing"/>
    <personTrip from="275477749" to="39008885#1" line="ANY" modes="public"/>
    <stop duration="29946" actType="singing"/>
    <personTrip from="39008885#1" to="45524884#1" line="ANY" modes="public"/>
    <personTrip from="45524884#1" to="316294353#0" line="ANY" vTypes="passenger"/>
    <stop duration="705" actType="singing"/>
    <personTrip from="316294353#0" to="-23195846" line="ANY" modes="public"/>
    <personTrip from="-23195846" to="32808778#0" line="ANY" vTypes="motorcycle"/>
    <stop duration="5354" actType="singing"/>
  </person>
  <person id="p12" depart="0.00">
    <personTrip from="-56255596" to="-23320467#1" line="ANY" modes="public"/>
    <stop duration="866" actType="singing"/>
    <personTrip from="-23320467#1" to="-56255596" line="ANY" modes="public"/>
    <stop duration="5139" actType="singing"/>
    <personTrip from="-56255596" to="-258841359#4" line="ANY" vTypes="motorcycle"/>
    <stop duration="33093" actType="singing"/>
    <personTrip from="-258841359#4" to="-200207971" line="ANY" modes="public"/>
    <stop duration="7341" actType="singing"/>
    <personTrip from="-200207971" to="-432904419#1" line="ANY" modes="public"/>
    <personTrip from="-432904419#1" to="-56255596" line="ANY" vTypes="passenger"/>
    <stop duration="7622" actType="singing"/>
  </person>
  <person id="p13" depart="0.00">
    <personTrip from="220011546#1" to="23528209#6" line="ANY" modes="public"/>
    <stop duration="8420" actType="singing"/>
    <personTrip from="23528209#6" to="926867320" line="ANY" vTypes="passenger"/>
    <stop duration="30531" actType="singing"/>
    <personTrip from="926867320" to="9054644" line="ANY" modes="public"/>
    <stop duration="841" actType="singing"/>
    <personTrip from="9054644" to="926867320" line="ANY" modes="public"/>
    <stop duration="29660" actType="singing"/>
    <personTrip from="926867320" to="16361898#1" line="ANY" modes="public"/>
    <personTrip from="16361898#1" to="23528209#6" line="ANY" vTypes="passenger"/>
    <stop duration="10404" actType="singing"/>
  </person>
  <person id="p14" depart="0.00">
    <personTrip from="317430994" to="-30998715" line="ANY" modes="public"/>
    <personTrip from="-30998715" to="-32197056#1" line="ANY" vTypes="motorcycle"/>
    <stop duration="35350" actType="singing"/>
    <personTrip from="-32197056#1" to="317430994" line="ANY" vTypes="motorcycle"/>
    <stop duration="4251" actType="singing"/>
    <personTrip from="317430994" to="107757512#0" line="ANY" modes="public"/>
    <stop duration="12099" actType="singing"/>
    <personTrip from="107757512#0" to="316335639#2" line="ANY" modes="public"/>
    <stop duration="1103" actType="singing"/>
    <personTrip from="316335639#2" to="107757512#0" line="ANY" modes="public"/>
    <stop duration="9023" actType="singing"/>
  </person>
  <person id="p15" depart="0.00">
    <personTrip from="23471135#4" to="1178446483#3" line="ANY" vTypes="bicycle"/>
    <stop duration="1198" actType="singing"/>
    <personTrip from="1178446483#3" to="462327390" line="ANY" modes="public"/>
    <personTrip from="462327390" to="23471135#4" line="ANY" vTypes="motorcycle"/>
    <stop duration="7575" actType="singing"/>
    <personTrip from="23471135#4" to="38504297#2" line="ANY" vTypes="motorcycle"/>
    <stop duration="7887" actType="singing"/>
    <personTrip from="38504297#2" to="449555693#0" line="ANY" modes="public"/>
    <stop duration="28076" actType="singing"/>
    <personTrip from="449555693#0" to="38504297#2" line="ANY" vTypes="passenger"/>
    <stop duration="8639" actType="singing"/>
  </person>
  <person id="p16" depart="0.00">
    <personTrip from="-692610288#1" to="23528406#0" line="ANY" modes="public"/>
    <stop duration="681" actType="singing"/>
    <personTrip from="23528406#0" to="-23275175#6" line="ANY" modes="public"/>
    <stop duration="5220" actType="singing"/>
    <personTrip from="-23275175#6" to="-273990573#1" line="ANY" modes="public"/>
    <stop duration="33828" actType="singing"/>
    <personTrip from="-273990573#1" to="-23275175#6" line="ANY" modes="public"/>
    <stop duration="9693" actType="singing"/>
    <personTrip from="-23275175#6" to="-273990573#1" line="ANY" modes="public"/>
    <stop duration="31078" actType="singing"/>
  </person>
  <person id="p17" depart="0.00">
    <personTrip from="53564621#0" to="1113474193" line="ANY" modes="public"/>
    <stop duration="9890" actType="singing"/>
    <personTrip from="1113474193" to="-26684891#1" line="ANY" modes="public"/>
    <stop duration="35372" actType="singing"/>
    <personTrip from="-26684891#1" to="53564621#0" line="ANY" vTypes="bicycle"/>
    <stop duration="4901" actType="singing"/>
    <personTrip from="53564621#0" to="-26684891#1" line="ANY" vTypes="motorcycle"/>
    <stop duration="30058" actType="singing"/>
    <personTrip from="-26684891#1" to="-25708890#0" line="ANY" modes="public"/>
    <stop duration="634" actType="singing"/>
  </person>
  <person id="p18" depart="0.00">
    <personTrip from="-24508745#0" to="208632416#0" line="ANY" modes="public"/>
    <stop duration="1034" actType="singing"/>
    <personTrip from="208632416#0" to="293895076" line="ANY" modes="public"/>
    <stop duration="35954" actType="singing"/>
    <personTrip from="293895076" to="-24508745#0" line="ANY" modes="public"/>
    <stop duration="4676" actType="singing"/>
    <personTrip from="-24508745#0" to="23471057#0" line="ANY" vTypes="passenger"/>
    <stop duration="10601" actType="singing"/>
    <personTrip from="23471057#0" to="-24508745#0" line="ANY" vTypes="motorcycle"/>
    <stop duration="6019" actType="singing"/>
  </person>
  <person id="p19" depart="0.00">
    <personTrip from="-692610319" to="-23528224#2" line="ANY" modes="public"/>
    <stop duration="961" actType="singing"/>
    <personTrip from="-23528224#2" to="-692610319" line="ANY" modes="public"/>
    <stop duration="5428" actType="singing"/>
    <personTrip from="-692610319" to="316335633#1" line="ANY" modes="public"/>
    <personTrip from="316335633#1" to="23151402#0" line="ANY" vTypes="motorcycle"/>
    <stop duration="13440" actType="singing"/>
    <personTrip from="23151402#0" to="926867325" line="ANY" modes="public"/>
    <stop duration="34429" actType="singing"/>
    <personTrip from="926867325" to="23151402#0" line="ANY" vTypes="bicycle"/>
    <stop duration="14034" actType="singing"/>
  </person>
  <person id="p20" depart="0.00">
    <personTrip from="-694012896" to="-1172804210" line="ANY" modes="public"/>
    <stop duration="33585" actType="singing"/>
    <personTrip from="-1172804210" to="153845068#0" line="ANY" vTypes="bicycle"/>
    <stop duration="1089" actType="singing"/>
    <personTrip from="153845068#0" to="23528330#1" line="ANY" modes="public"/>
    <stop duration="10882" actType="singing"/>
    <personTrip from="23528330#1" to="-1172804210" line="ANY" modes="public"/>
    <stop duration="31184" actType="singing"/>
    <personTrip from="-1172804210" to="-694012896" line="ANY" modes="public"/>
    <stop duration="5093" actType="singing"/>
  </person>
  <person id="p21" depart="0.00">
    <personTrip from="387212695#0" to="441972342" line="ANY" modes="public"/>
    <stop duration="34773" actType="singing"/>
    <personTrip from="441972342" to="-25497562#1" line="ANY" modes="public"/>
    <personTrip from="-25497562#1" to="387212695#0" line="ANY" vTypes="motorcycle"/>
    <stop duration="5309" actType="singing"/>
    <personTrip from="387212695#0" to="4807761" line="ANY" modes="public"/>
    <stop duration="4481" actType="singing"/>
    <personTrip from="4807761" to="441972342" line="ANY" vTypes="passenger"/>
    <stop duration="32276" actType="singing"/>
    <personTrip from="441972342" to="-350217704#0" line="ANY" modes="public"/>
    <personTrip from="-350217704#0" to="-24510734#1" line="ANY" vTypes="bicycle"/>
    <stop duration="791" actType="singing"/>
  </person>
  <person id="p22" depart="0.00">
    <personTrip from="429210535" to="185992479" line="ANY" modes="public"/>
    <stop duration="8571" actType="singing"/>
    <personTrip from="185992479" to="266652838" line="ANY" modes="public"/>
    <stop duration="30617" actType="singing"/>
    <personTrip from="266652838" to="185992479" line="ANY" modes="public"/>
    <stop duration="12802" actType="singing"/>
    <personTrip from="185992479" to="-25072810#1" line="ANY" modes="public"/>
    <personTrip from="-25072810#1" to="266652838" line="ANY" vTypes="motorcycle"/>
    <stop duration="28925" actType="singing"/>
    <personTrip from="266652838" to="311981044#2" line="ANY" modes="public"/>
    <personTrip from="311981044#2" to="429210535" line="ANY" vTypes="motorcycle"/>
    <stop duration="6576" actType="singing"/>
  </person>
  <person id="p23" depart="0.00">
    <personTrip from="22889927#4" to="-219447945#0" line="ANY" vTypes="bicycle"/>
    <stop duration="639" actType="singing"/>
    <personTrip from="-219447945#0" to="22889927#4" line="ANY" modes="public"/>
    <stop duration="6837" actType="singing"/>
    <personTrip from="22889927#4" to="231912752#0" line="ANY" vTypes="passenger"/>
    <stop duration="14319" actType="singing"/>
    <personTrip from="231912752#0" to="115373680#8" line="ANY" modes="public"/>
    <stop duration="30327" actType="singing"/>
    <personTrip from="115373680#8" to="22889927#4" line="ANY" modes="public"/>
    <stop duration="5907" actType="singing"/>
  </person>
  <person id="p24" depart="0.00">
    <personTrip from="451562803" to="42326255#2" line="ANY" vTypes="motorcycle"/>
    <stop duration="5582" actType="singing"/>
    <personTrip from="42326255#2" to="451562803" line="ANY" vTypes="passenger"/>
    <stop duration="5963" actType="singing"/>
    <personTrip from="451562803" to="-24509652#0" line="ANY" vTypes="bicycle"/>
    <stop duration="29313" actType="singing"/>
    <personTrip from="-24509652#0" to="451562803" line="ANY" vTypes="motorcycle"/>
    <stop duration="7172" actType="singing"/>
    <personTrip from="451562803" to="-203414596" line="ANY" modes="public"/>
    <stop duration="976" actType="singing"/>
  </person>
  <person id="p25" depart="0.00">
    <personTrip from="317594458" to="31828763#1" line="ANY" modes="public"/>
    <stop duration="30395" actType="singing"/>
    <personTrip from="31828763#1" to="-264621638#0" line="ANY" modes="public"/>
    <personTrip from="-264621638#0" to="317594458" line="ANY" vTypes="bicycle"/>
    <stop duration="7176" actType="singing"/>
    <personTrip from="317594458" to="400416445#7" line="ANY" modes="public"/>
    <personTrip from="400416445#7" to="-411123215" line="ANY" vTypes="motorcycle"/>
    <stop duration="989" actType="singing"/>
    <personTrip from="-411123215" to="317594458" line="ANY" modes="public"/>
    <stop duration="4487" actType="singing"/>
    <personTrip from="317594458" to="-411123215" line="ANY" modes="public"/>
    <stop duration="1014" actType="singing"/>
  </person>
  <person id="p26" depart="0.00">
    <personTrip from="255713688" to="-248760538#1" line="ANY" modes="public"/>
    <stop duration="33611" actType="singing"/>
    <personTrip from="-248760538#1" to="-432904427#5" line="ANY" modes="public"/>
    <stop duration="1094" actType="singing"/>
    <personTrip from="-432904427#5" to="-248760538#1" line="ANY" modes="public"/>
    <stop duration="30191" actType="singing"/>
    <personTrip from="-248760538#1" to="317594596#2" line="ANY" modes="public"/>
    <stop duration="14019" actType="singing"/>
    <personTrip from="317594596#2" to="432904379#0" line="ANY" modes="public"/>
    <personTrip from="432904379#0" to="255713688" line="ANY" vTypes="bicycle"/>
    <stop duration="7527" actType="singing"/>
  </person>
  <person id="p27" depart="0.00">
    <personTrip from="350217704#4" to="187897705" line="ANY" vTypes="motorcycle"/>
    <stop duration="3906" actType="singing"/>
    <personTrip from="187897705" to="350217704#4" line="ANY" modes="public"/>
    <stop duration="7990" actType="singing"/>
    <personTrip from="350217704#4" to="-570009376#1" line="ANY" vTypes="motorcycle"/>
    <stop duration="35731" actType="singing"/>
    <personTrip from="-570009376#1" to="350217704#4" line="ANY" vTypes="bicycle"/>
    <stop duration="6088" actType="singing"/>
    <personTrip from="350217704#4" to="-570009376#1" line="ANY" vTypes="motorcycle"/>
    <stop duration="34367" actType="singing"/>
  </person>
  <person id="p28" depart="0.00">
    <personTrip from="26686015" to="88336843" line="ANY" modes="public"/>
    <stop duration="8770" actType="singing"/>
    <personTrip from="88336843" to="-275526211" line="ANY" modes="public"/>
    <personTrip from="-275526211" to="23059834#2" line="ANY" vTypes="motorcycle"/>
    <stop duration="741" actType="singing"/>
    <personTrip from="23059834#2" to="88336843" line="ANY" modes="public"/>
    <stop duration="5206" actType="singing"/>
    <personTrip from="88336843" to="23059834#2" line="ANY" vTypes="bicycle"/>
    <stop duration="802" actType="singing"/>
    <personTrip from="23059834#2" to="26686015" line="ANY" modes="public"/>
    <stop duration="6079" actType="singing"/>
  </person>
  <person id="p29" depart="0.00">
    <personTrip from="302747094" to="111177314#2" line="ANY" modes="public"/>
    <personTrip from="111177314#2" to="-23108629#1" line="ANY" vTypes="passenger"/>
    <stop duration="7423" actType="singing"/>
    <personTrip from="-23108629#1" to="-23999572#0" line="ANY" vTypes="bicycle"/>
    <stop duration="29289" actType="singing"/>
    <personTrip from="-23999572#0" to="42229177" line="ANY" modes="public"/>
    <personTrip from="42229177" to="-23108629#1" line="ANY" vTypes="passenger"/>
    <stop duration="8030" actType="singing"/>
    <personTrip from="-23108629#1" to="-23999572#0" line="ANY" vTypes="bicycle"/>
    <stop duration="35975" actType="singing"/>
    <personTrip from="-23999572#0" to="42229177" line="ANY" modes="public"/>
    <personTrip from="42229177" to="-23108629#1" line="ANY" vTypes="passenger"/>
    <stop duration="7809" actType="singing"/>
  </person>
  <person id="p30" depart="0.00">
    <personTrip from="-173309331#0" to="169127802" line="ANY" modes="public"/>
    <stop duration="1007" actType="singing"/>
    <personTrip from="169127802" to="206041583#0" line="ANY" modes="public"/>
    <personTrip from="206041583#0" to="-173309331#0" line="ANY" vTypes="passenger"/>
    <stop duration="8263" actType="singing"/>
    <personTrip from="-173309331#0" to="169127802" line="ANY" modes="public"/>
    <stop duration="780" actType="singing"/>
    <personTrip from="169127802" to="185494466#2" line="ANY" modes="public"/>
    <stop duration="34585" actType="singing"/>
    <personTrip from="185494466#2" to="-173309331#0" line="ANY" modes="public"/>
    <stop duration="7101" actType="singing"/>
  </person>
  <person id="p31" depart="0.00">
    <personTrip from="-314882657#2" to="269782617#2" line="ANY" modes="public"/>
    <personTrip from="269782617#2" to="1162834454" line="ANY" vTypes="motorcycle"/>
    <stop duration="6327" actType="singing"/>
    <personTrip from="1162834454" to="22889927#0" line="ANY" modes="public"/>
    <personTrip from="22889927#0" to="-158355468#7" line="ANY" vTypes="passenger"/>
    <stop duration="31624" actType="singing"/>
    <personTrip from="-158355468#7" to="23093006" line="ANY" vTypes="motorcycle"/>
    <stop duration="950" actType="singing"/>
    <personTrip from="23093006" to="-314882657#2" line="ANY" modes="public"/>
    <stop duration="6593" actType="singing"/>
    <personTrip from="-314882657#2" to="269782617#2" line="ANY" modes="public"/>
    <personTrip from="269782617#2" to="1162834454" line="ANY" vTypes="motorcycle"/>
    <stop duration="13666" actType="singing"/>
  </person>
  <person id="p32" depart="0.00">
    <personTrip from="186004306#1" to="-23320593#4" line="ANY" modes="public"/>
    <stop duration="1036" actType="singing"/>
    <personTrip from="-23320593#4" to="823062061" line="ANY" modes="public"/>
    <stop duration="35701" actType="singing"/>
    <personTrip from="823062061" to="378237359#6" line="ANY" modes="public"/>
    <personTrip from="378237359#6" to="186004306#1" line="ANY" vTypes="motorcycle"/>
    <stop duration="8094" actType="singing"/>
    <personTrip from="186004306#1" to="-29214401" line="ANY" modes="public"/>
    <stop duration="9134" actType="singing"/>
    <personTrip from="-29214401" to="186004306#1" line="ANY" modes="public"/>
    <stop duration="4290" actType="singing"/>
  </person>
  <person id="p33" depart="0.00">
    <personTrip from="-24437132#0" to="-23528377#1" line="ANY" modes="public"/>
    <stop duration="29762" actType="singing"/>
    <personTrip from="-23528377#1" to="24390152#1" line="ANY" vTypes="bicycle"/>
    <stop duration="13426" actType="singing"/>
    <personTrip from="24390152#1" to="-24437132#0" line="ANY" modes="public"/>
    <stop duration="6234" actType="singing"/>
    <personTrip from="-24437132#0" to="-4807746#2" line="ANY" vTypes="bicycle"/>
    <stop duration="780" actType="singing"/>
    <personTrip from="-4807746#2" to="24390152#1" line="ANY" vTypes="motorcycle"/>
    <stop duration="12193" actType="singing"/>
  </person>
  <person id="p34" depart="0.00">
    <personTrip from="-45524884#2" to="38549912" line="ANY" modes="public"/>
    <stop duration="939" actType="singing"/>
    <personTrip from="38549912" to="-45524884#2" line="ANY" modes="public"/>
    <stop duration="6615" actType="singing"/>
    <personTrip from="-45524884#2" to="1180691134" line="ANY" vTypes="motorcycle"/>
    <stop duration="4770" actType="singing"/>
    <personTrip from="1180691134" to="-4811453#1" line="ANY" modes="public"/>
    <personTrip from="-4811453#1" to="-88336155#0" line="ANY" vTypes="passenger"/>
    <stop duration="34695" actType="singing"/>
    <personTrip from="-88336155#0" to="-45524884#2" line="ANY" modes="public"/>
    <stop duration="6791" actType="singing"/>
  </person>
  <person id="p35" depart="0.00">
    <personTrip from="386831070" to="-444946237#1" line="ANY" vTypes="bicycle"/>
    <stop duration="34431" actType="singing"/>
    <personTrip from="-444946237#1" to="386831070" line="ANY" modes="public"/>
    <stop duration="6513" actType="singing"/>
    <personTrip from="386831070" to="-444946237#1" line="ANY" modes="public"/>
    <stop duration="32120" actType="singing"/>
    <personTrip from="-444946237#1" to="-169095987" line="ANY" modes="public"/>
    <stop duration="941" actType="singing"/>
    <personTrip from="-169095987" to="386831070" line="ANY" modes="public"/>
    <stop duration="7110" actType="singing"/>
  </person>
  <person id="p36" depart="0.00">
    <personTrip from="183419654#0" to="-36905364#0" line="ANY" modes="public"/>
    <personTrip from="-36905364#0" to="404790254" line="ANY" vTypes="bicycle"/>
    <stop duration="10616" actType="singing"/>
    <personTrip from="404790254" to="183419654#0" line="ANY" modes="public"/>
    <stop duration="8173" actType="singing"/>
    <personTrip from="183419654#0" to="404790254" line="ANY" modes="public"/>
    <stop duration="6303" actType="singing"/>
    <personTrip from="404790254" to="1169442215" line="ANY" modes="public"/>
    <stop duration="1192" actType="singing"/>
    <personTrip from="1169442215" to="183419654#0" line="ANY" modes="public"/>
    <stop duration="4248" actType="singing"/>
  </person>
  <person id="p37" depart="0.00">
    <personTrip from="-260983469#4" to="-8026683#9" line="ANY" vTypes="passenger"/>
    <stop duration="13219" actType="singing"/>
    <personTrip from="-8026683#9" to="25973410#9" line="ANY" modes="public"/>
    <stop duration="697" actType="singing"/>
    <personTrip from="25973410#9" to="-260983469#4" line="ANY" modes="public"/>
    <stop duration="7988" actType="singing"/>
    <personTrip from="-260983469#4" to="25973410#9" line="ANY" modes="public"/>
    <stop duration="824" actType="singing"/>
    <personTrip from="25973410#9" to="-8026683#9" line="ANY" vTypes="motorcycle"/>
    <stop duration="6708" actType="singing"/>
  </person>
  <person id="p38" depart="0.00">
    <personTrip from="-37721058#0" to="-269782616#1" line="ANY" modes="public"/>
    <stop duration="9944" actType="singing"/>
    <personTrip from="-269782616#1" to="-88336155#1" line="ANY" modes="public"/>
    <stop duration="854" actType="singing"/>
    <personTrip from="-88336155#1" to="23093001" line="ANY" modes="public"/>
    <personTrip from="23093001" to="-37721058#0" line="ANY" vTypes="passenger"/>
    <stop duration="5854" actType="singing"/>
    <personTrip from="-37721058#0" to="-269782616#1" line="ANY" vTypes="motorcycle"/>
    <stop duration="8069" actType="singing"/>
    <personTrip from="-269782616#1" to="23032780" line="ANY" modes="public"/>
    <stop duration="32684" actType="singing"/>
  </person>
  <person id="p39" depart="0.00">
    <personTrip from="-16361889#3" to="431444821#3" line="ANY" modes="public"/>
    <stop duration="3701" actType="singing"/>
    <personTrip from="431444821#3" to="23184036#1" line="ANY" modes="public"/>
    <stop duration="631" actType="singing"/>
    <personTrip from="23184036#1" to="-4807755#1" line="ANY" vTypes="passenger"/>
    <stop duration="33035" actType="singing"/>