<?xml version="1.0" encoding="UTF-8"?>

<!-- generated on 2024-02-28 18:33:08.859548 by ptlines2flows.py v1_19_0+0000-baa66a0f364
<configuration>
    <net-file value="crr.net.xml"/>
    <ptlines-file value="ptlines.xml"/>
    <ptstops-file value="additional.xml"/>
    <period value="1200.0"/>
    <use-osm-routes value="True"/>
    <ignore-errors value="True"/>
    <vtype-prefix value="pt_"/>
    <verbose value="True"/>
</configuration>
-->

<routes xmlns:xsi="http://www.w3.org/2001/XMLSchema-instance" xsi:noNamespaceSchemaLocation="http://sumo.dlr.de/xsd/routes_file.xsd">
    <vType id="pt_bus" vClass="bus"/>
    <vType id="pt_tram" vClass="tram"/>
    <vType id="pt_train" vClass="rail"/>
    <vType id="pt_subway" vClass="rail_urban"/>
    <vType id="pt_light_rail" vClass="rail_urban"/>
    <vType id="pt_monorail" vClass="rail_urban"/>
    <vType id="pt_trolleybus" vClass="bus"/>
    <vType id="pt_minibus" vClass="bus"/>
    <vType id="pt_share_taxi" vClass="taxi"/>
    <vType id="pt_aerialway" vClass="rail_urban" length="2.5" width="2" personCapacity="4"/>
    <vType id="pt_ferry" vClass="ship"/>
    <route id="pt_light_rail_U13:0" color="237,165,180" edges="673171637 172027782#0 172027782#1 172027782#2 172027782#3 172027782#4 172027782#5 172027782#6" >
        <stop busStop="4165943332" duration="20" until="39.0"/> <!-- Hedelfingen -->
        <stop busStop="26407025" duration="20" until="118.0"/> <!-- Hedelfinger Straße -->
        <stop busStop="26407024" duration="20" until="187.0"/> <!-- Wangen Marktplatz -->
        <stop busStop="1749738363" duration="20" until="249.0"/> <!-- Wasenstraße -->
    </route>
    <route id="pt_light_rail_U13:1" color="237,165,180" edges="68552415#0 68552415#3 68552415#4 68552415#5 68552415#6 68552415#7 68552415#8 172027783" >
        <stop busStop="279915707" duration="20" until="46.0"/> <!-- Wasenstraße -->
        <stop busStop="279915677" duration="20" until="109.0"/> <!-- Wangen Marktplatz -->
        <stop busStop="279915667" duration="20" until="178.0"/> <!-- Hedelfinger Straße -->
        <stop busStop="279930071" duration="20" until="254.0"/> <!-- Hedelfingen -->
    </route>
    <route id="pt_light_rail_U9:0" color="255,213,3" edges="673171637 172027782#0 172027782#1 172027782#2 172027782#3 172027782#4 172027782#5 172027782#6" >
        <stop busStop="4165943332" duration="20" until="39.0"/> <!-- Hedelfingen -->
        <stop busStop="26407025" duration="20" until="118.0"/> <!-- Hedelfinger Straße -->
        <stop busStop="26407024" duration="20" until="187.0"/> <!-- Wangen Marktplatz -->
    </route>
    <route id="pt_bus_61:1" color="252,103,177" edges="431444776 431444780#0 431444780#1 431444780#2 431444780#3 548813064#1 548813063 29462298#0 29462298#1 29462298#2 -548669406 -548669407 -548669410#0 -317544600#2 -317544600#1 -317544600#0 -288806326#2 -288806326#1 -288806326#0 -5782992#1 -5782992#0 5783099#0 5783099#1 5783099#2 288808359 288806325#0 288806325#1 36989666 548626555 -36990115 -676917368#0" >
        <stop busStop="269253233" duration="20" until="35.0"/> <!-- Haus am Weinberg -->
        <stop busStop="895825832" duration="20" until="98.0"/> <!-- Ebniseestraße -->
        <stop busStop="-5300400686" duration="20" until="195.0"/> <!-- Bergstaffelstraße -->
        <stop busStop="-895825744" duration="20" until="278.0"/> <!-- Obertürkheim Bahnhof -->
    </route>
    <route id="pt_bus_61:0" color="252,103,177" edges="-540190677 -26263195#0 25460405 -26245946#1 -26245946#0 548626550 36989717#0 36989717#1 -288806325#1 -288806325#0 -288808359 -5783099#2 -5783099#1 -5783099#0 5782992#0 5782992#1 288806326#0 288806326#1 288806326#2 317544600#0 317544600#1 317544600#2 317544600#3 548669410#1 548669406 548669409 29462349#1 -548813064#1 -548813064#0 -431444780#2 -431444780#1 -431444780#0 -431444776" >
        <stop busStop="-5226460705" duration="20" until="37.0"/> <!-- Obertürkheim Bahnhof -->
        <stop busStop="430160899" duration="20" until="107.0"/> <!-- None -->
        <stop busStop="5300400686" duration="20" until="174.0"/> <!-- Bergstaffelstraße -->
        <stop busStop="895825813" duration="20" until="235.0"/> <!-- Ebniseestraße -->
        <stop busStop="-269253233" duration="20" until="294.0"/> <!-- Haus am Weinberg -->
    </route>
    <route id="pt_light_rail_U9:1" color="255,213,3" edges="68552415#0 68552415#3 68552415#4 68552415#5 68552415#6 68552415#7 68552415#8 172027783" >
        <stop busStop="279915707" duration="20" until="46.0"/> <!-- Wasenstraße -->
        <stop busStop="279915677" duration="20" until="109.0"/> <!-- Wangen Marktplatz -->
        <stop busStop="279915667" duration="20" until="178.0"/> <!-- Hedelfinger Straße -->
        <stop busStop="279930071" duration="20" until="254.0"/> <!-- Hedelfingen -->
    </route>
    <route id="pt_bus_121:1" color="51,92,113" edges="207210286 24447783#0 24447783#1 24447786#1 -94166203#1 -94166203#0 44459774#1 44459774#2 44459774#3 384972992 44459767 -44459823#2 -44459823#1 -44459823#0 27531049#0 27531049#1 27531049#2 27531049#3 27531049#4 27531049#5 27531049#6 392589607#1 392589607#2 392589607#3" >
        <stop busStop="6537655136" duration="20" until="83.0"/> <!-- Sirnauer Brücke -->
        <stop busStop="3883265532" duration="20" until="158.0"/> <!-- Max-Planck-Straße -->
        <stop busStop="3883265541" duration="20" until="236.0"/> <!-- Schwertmühle -->
        <stop busStop="287465536" duration="20" until="329.0"/> <!-- Oberesslingen Bahnhof (Süd) -->
    </route>
    <route id="pt_bus_121:0" color="51,92,113" edges="-392589607#0 -27531049#5 -27531049#4 -27531049#3 -27531049#2 -27531049#1 -27531049#0 44459823#0 44459823#1 44459823#2 207083330 -44459774#3 -44459774#2 -44459774#1 -44459774#0 94166203#1 -24447786#1 -24447786#0 -24447783#0 207210285" >
        <stop busStop="-245017149" duration="20" until="34.0"/> <!-- Oberesslingen Bahnhof (Süd) -->
        <stop busStop="-3883265541" duration="20" until="121.0"/> <!-- Schwertmühle -->
        <stop busStop="-3883265532" duration="20" until="199.0"/> <!-- Max-Planck-Straße -->
        <stop busStop="-3883265542" duration="20" until="273.0"/> <!-- Sirnauer Brücke -->
    </route>
    <route id="pt_bus_65:1" color="255,106,32" edges="788566318#0 788566318#1 755934751#0 755934751#1 742295561#0 742295561#1 41080618 914785856 27607255#0 27607255#1 27607327#0 27607327#1 569642543 161583692#0 161583692#1 161583692#2 161583692#3 163491634 763418587 278026024#0 278026024#1 29559568#0 29559568#1 29559568#2 29555966 161583680 243216859 243216872#0 243216872#1 243216872#2 243216872#3 243216853 29555873#1 244530981#0 244530981#1 244530981#2 244576556 548822668 29556306#0 29556306#1 29556306#2 548822665 548822666 237155758 24780159#0 24780159#1 316814479 35359315#0 35359315#1 35359315#2 431480688 288806327 431444812 25642410#1 25642410#2 5783099#0 5783099#1 5783099#2 288808359 288806325#0 288806325#1 36989666 548626555 -36990115 -676917368#0" >
        <stop busStop="895825781" duration="20" until="100.0"/> <!-- None -->
        <stop busStop="895825803" duration="20" until="215.0"/> <!-- Hedelfingen -->
        <stop busStop="895825839" duration="20" until="355.0"/> <!-- Otto-Hirsch-Brücken -->
        <stop busStop="-895825744" duration="20" until="469.0"/> <!-- Obertürkheim Bahnhof -->
    </route>
    <route id="pt_bus_65:0" color="255,106,32" edges="-676917368#0 -540190677 -26263195#0 25460405 -26245946#1 -26245946#0 548626550 36989717#0 36989717#1 -288806325#1 -288806325#0 -288808359 -5783099#2 -5783099#1 -5783099#0 -25642410#2 -25642410#1 -25642410#0 -288806327 -25642408 -35359315#2 -35359315#1 -35359315#0 -316814479 -24780159#1 -24780159#0 -23062040 -548822666 -548822665 -29556306#2 -29556306#1 -29556306#0 548822667 169217571#1 244531066#0 244531066#1 244531066#2 548822664 24780172#1 244530807 243216856 169217573#1 243216863 243216867#0 243216867#1 243216867#2 569646673 29559418#0 29559418#1 29559418#2 29559418#3 -278026024#1 -278026024#0 -763418587 -163491634 -161583692#3 -161583692#2 -161583692#1 -161583692#0 -569642543 -27607327#1 -27607327#0 25460406#0 25460406#1 72604695 72604693 27661678#0 27661678#1 569635661 27607365#0 27607365#1 27607365#2" >
        <stop busStop="-895825744" duration="20" until="36.0"/> <!-- Obertürkheim Bahnhof -->
        <stop busStop="430160899" duration="20" until="146.0"/> <!-- None -->
        <stop busStop="-6501447771" duration="20" until="245.0"/> <!-- Otto-Hirsch-Brücken -->
        <stop busStop="895825756" duration="20" until="370.0"/> <!-- Hedelfingen -->
        <stop busStop="-895825842" duration="20" until="470.0"/> <!-- None -->
    </route>
    <route id="pt_bus_62:0" color="24,197,244" edges="570449183#0 570449183#1 570449182#0 570449182#1 154230466#0 154230466#1 154230466#2 154230466#3 154230466#4 570455526#1 570455523 192950762 192950772 -26245946#1 -26245946#0 548626550 36989717#0 36989717#1 -288806325#1 -288806325#0 -288808359 -5783099#2 -5783099#1 -5783099#0 -25642410#2 -25642410#1 -25642410#0 -288806327 -25642408 -35359315#2 -35359315#1 -35359315#0 -316814479 -24780159#1 -24780159#0 -23062040 -548822666 -548822665 -29556306#2 -29556306#1 -29556306#0 548822667 169217571#1 244531066#0 244531066#1 244531066#2 548822664 24780172#1 244530807 243216856 169217573#1 243216863 243216867#0 243216867#1 243216867#2 569646673 29559418#0 29559418#1 29559418#2 29559418#3 -278026024#1 -278026024#0 -763418587 -163491634 -161583692#3 -161583692#2 -161583692#1 -161583692#0 -569642543 -27607327#1 -27607327#0 25460406#0 25460406#1 72604695 -437885764 -686400891#2 -686400891#1 -686400891#0" >
        <stop busStop="278558096" duration="20" until="79.0"/> <!-- Im Mäder -->
        <stop busStop="430160899" duration="20" until="183.0"/> <!-- None -->
        <stop busStop="-6501447771" duration="20" until="283.0"/> <!-- Otto-Hirsch-Brücken -->
        <stop busStop="895825756" duration="20" until="408.0"/> <!-- Hedelfingen -->
        <stop busStop="-895825842" duration="20" until="509.0"/> <!-- None -->
    </route>
    <route id="pt_bus_816:1" edges="-12511795 -641934971#1 -641934971#0 -641934970#1 -641934970#0 -294067066#11 -294067066#10 -294067066#9 -294067066#8 -294067066#7 -294067066#6 -294067066#5 -294067066#4 -294067066#3 -294067066#2 -294067066#1 -294067066#0 -435365553#2 -435365553#1 -435365553#0 -75077806 163301140#0 163301140#1 163301140#2 163301140#3 163301140#4 163301140#6 75077804#0 75077804#1 75077804#2 75077804#3 75077804#4 343305746#1 343305746#2 343305746#3 343305746#4 343305746#5 -12787707#1 -12787707#0 -875800261#3 -875800261#2 -875800261#1 -875800261#0 -35327641#2 -35327641#1 -35327641#0 -379988289#2 -379988289#1 -379988289#0 -157693253#2 -157693253#1 -157693253#0 -237134496#12 -237134496#11 -237134496#10 -237134496#9 -237134496#8 -237134496#7 -237134496#6 -237134496#5 -237134496#4 -237134496#3 -237134496#2 -237134496#1 -237134496#0 -432904395 -25117945#1 -25117945#0 -432904397#4 -432904397#3 -432904397#2 -432904397#1 -432904397#0 -432904396 -29146462#4 -29146462#3 -29146462#2 -29146462#1 -29146462#0 29146499#0 29146499#1 29146499#2" >
        <stop busStop="-6260408371" duration="20" until="148.0"/> <!-- Ruit Scharnhäuser Straße -->
        <stop busStop="6262814783" duration="20" until="274.0"/> <!-- Ruit Kirche -->
        <stop busStop="-4379712496" duration="20" until="346.0"/> <!-- Ruit -->
        <stop busStop="-886304580" duration="20" until="442.0"/> <!-- Ruit Im Kapf -->
        <stop busStop="320617737" duration="20" until="549.0"/> <!-- Ruit Krankenhaus -->
    </route>
    <route id="pt_light_rail_U8:0" color="195,180,125" edges="89344777#0 89344777#3 89344777#4 89344777#5 26946516#1" >
        <stop busStop="253915614" duration="20" until="46.0"/> <!-- Nellingen Ostfildern -->
        <stop busStop="271464257" duration="20" until="106.0"/> <!-- Nellingen Technische Akademie -->
        <stop busStop="66828113" duration="20" until="201.0"/> <!-- Scharnhauser Park Kreuzbrunnen -->
        <stop busStop="66828122" duration="20" until="269.0"/> <!-- Scharnhauser Park -->
        <stop busStop="270196725" duration="20" until="339.0"/> <!-- Parksiedlung -->
        <stop busStop="270599198" duration="20" until="414.0"/> <!-- Ruit Zinsholz -->
        <stop busStop="113591455" duration="20" until="491.0"/> <!-- Ruit -->
    </route>
    <route id="pt_light_rail_U8:1" color="195,180,125" edges="260664667#0 26946520#0 26946520#1 26946517#1 26946517#2 40985104#1 40985104#2 40985104#3" >
        <stop busStop="295255872" duration="20" until="124.0"/> <!-- Ruit -->
        <stop busStop="295255894" duration="20" until="199.0"/> <!-- Ruit Zinsholz -->
        <stop busStop="295255933" duration="20" until="274.0"/> <!-- Parksiedlung -->
        <stop busStop="499482917" duration="20" until="342.0"/> <!-- Scharnhauser Park -->
        <stop busStop="499482936" duration="20" until="414.0"/> <!-- Scharnhauser Park Kreuzbrunnen -->
        <stop busStop="499482984" duration="20" until="509.0"/> <!-- Nellingen Technische Akademie -->
        <stop busStop="2015375187" duration="20" until="569.0"/> <!-- Nellingen Ostfildern -->
    </route>
    <route id="pt_bus_62:1" color="24,197,244" edges="686400891#0 686400891#1 686400891#2 35359026 72604693 35358855 41080618 914785856 27607255#0 27607255#1 27607327#0 27607327#1 569642543 161583692#0 161583692#1 161583692#2 161583692#3 163491634 763418587 278026024#0 278026024#1 29559568#0 29559568#1 29559568#2 29555966 161583680 243216859 243216872#0 243216872#1 243216872#2 243216872#3 243216853 29555873#1 244530981#0 244530981#1 244530981#2 244576556 548822668 29556306#0 29556306#1 29556306#2 548822665 548822666 237155758 24780159#0 24780159#1 316814479 35359315#0 35359315#1 35359315#2 431480688 288806327 431444812 25642410#1 25642410#2 5783099#0 5783099#1 5783099#2 288808359 288806325#0 288806325#1 36989666 548626555 -36990115 -676917368#0 -540190677 -26263195#0 25460405 -192950772 -192950762 -570081633 -570081632 -570455526#0 -154230466#3 -154230466#2 -154230466#1 -154230466#0 -570449182#1 -570449182#0 -570449183#1 -570449183#0" >
        <stop busStop="895825781" duration="20" until="61.0"/> <!-- None -->
        <stop busStop="895825803" duration="20" until="176.0"/> <!-- Hedelfingen -->
        <stop busStop="895825839" duration="20" until="315.0"/> <!-- Otto-Hirsch-Brücken -->
        <stop busStop="-895825744" duration="20" until="430.0"/> <!-- Obertürkheim Bahnhof -->
        <stop busStop="-278558094" duration="20" until="534.0"/> <!-- Im Mäder -->
    </route>
    <route id="pt_train_RE_5:0" edges="248760538#0 248760538#1 248760538#2 248760538#3 248760538#4 180784434#1 156199094#1 156199094#2 156199094#3 102848475#1 102848507#0 102848507#1 460942121#0 460942121#1 25423242#1 85959749#1 68906765 70395557#1 48316096#2 48316096#3 48316096#5 244328503 431522376#1 993129238 762092286" >
        <stop busStop="2661523902" duration="20" until="273.0"/> <!-- Esslingen (Neckar) -->
        <stop busStop="3068257018" duration="20" until="494.0"/> <!-- Stuttgart-Obertürkheim -->
    </route>
    <route id="pt_bus_816:0" edges="29146499#2 161599839#1 35818988 35880306 644467860 29146462#0 29146462#1 29146462#2 29146462#3 29146462#4 432904396 432904397#0 432904397#1 432904397#2 432904397#3 432904397#4 25117945#0 25117945#1 432904395 237134496#0 237134496#1 237134496#2 237134496#3 237134496#4 237134496#5 237134496#6 237134496#7 237134496#8 237134496#9 237134496#10 237134496#11 237134496#12 157693253#0 157693253#1 157693253#2 379988289#0 379988289#1 379988289#2 35327641#0 35327641#1 35327641#2 875800261#0 875800261#1 875800261#2 875800261#3 12787707#0 12787707#1 -343305746#5 -343305746#4 -343305746#3 -343305746#2 -343305746#1 -343305746#0 -75077804#3 -75077804#2 -75077804#1 -75077804#0 -163301140#6 -163301140#5 -163301140#3 -163301140#2 -163301140#1 -163301140#0 75077806 435365553#0 435365553#1 435365553#2 294067066#0 294067066#1 294067066#2 294067066#3 294067066#4 294067066#5 294067066#6 294067066#7 294067066#8 294067066#9 294067066#10 294067066#11 641934970#0 641934970#1 641934971#0 641934971#1 12511795" >
        <stop busStop="320617737" duration="20" until="39.0"/> <!-- Ruit Krankenhaus -->
        <stop busStop="886304632" duration="20" until="166.0"/> <!-- Ruit Im Kapf -->
        <stop busStop="886304631" duration="20" until="249.0"/> <!-- Ruit -->
        <stop busStop="-66830400" duration="20" until="364.0"/> <!-- Ruit Kirche -->
        <stop busStop="6260408369" duration="20" until="507.0"/> <!-- Ruit Scharnhäuser Straße -->
    </route>
    <route id="pt_light_rail_U7:0" color="14,180,141" edges="89344777#0 89344777#3 89344777#4 89344777#5 26946516#1" >
        <stop busStop="253915614" duration="20" until="46.0"/> <!-- Nellingen Ostfildern -->
        <stop busStop="271464257" duration="20" until="106.0"/> <!-- Nellingen Technische Akademie -->
        <stop busStop="66828113" duration="20" until="201.0"/> <!-- Scharnhauser Park Kreuzbrunnen -->
        <stop busStop="66828122" duration="20" until="269.0"/> <!-- Scharnhauser Park -->
        <stop busStop="270196725" duration="20" until="339.0"/> <!-- Parksiedlung -->
        <stop busStop="270599198" duration="20" until="414.0"/> <!-- Ruit Zinsholz -->
        <stop busStop="113591455" duration="20" until="491.0"/> <!-- Ruit -->
    </route>
    <route id="pt_light_rail_U7:1" color="14,180,141" edges="260664667#0 26946520#0 26946520#1 26946517#1 26946517#2 40985104#1 40985104#2 40985104#3" >
        <stop busStop="295255872" duration="20" until="119.0"/> <!-- Ruit -->
        <stop busStop="295255894" duration="20" until="194.0"/> <!-- Ruit Zinsholz -->
        <stop busStop="295255933" duration="20" until="269.0"/> <!-- Parksiedlung -->
        <stop busStop="499482917" duration="20" until="375.0"/> <!-- Scharnhauser Park -->
        <stop busStop="499482936" duration="20" until="449.0"/> <!-- Scharnhauser Park Kreuzbrunnen -->
        <stop busStop="499482984" duration="20" until="545.0"/> <!-- Nellingen Technische Akademie -->
        <stop busStop="2015375187" duration="20" until="605.0"/> <!-- Nellingen Ostfildern -->
    </route>
    <route id="pt_bus_113:3" color="24,197,244" edges="-26969221#3 -26969221#2 -26969221#1 -26969221#0 -42326257 -30998708#2 -30998708#1 -30998708#0 -387498880#1 -387498880#0 -192671023 -23286910 -386236344#1 -386236344#0 -220797339 -130569447 -24782849#1 -24782849#0 -385259858 4813442 204724401 386239008 204724398 24447759#0 24447759#1 390216938 -441764367#1 -441764367#0 -474485726 314609084 390216942 474485723#0 474485723#1 474485723#2 474485723#3 474485722 24008852#0 24008852#1 24008852#2 24008852#3 474485721 24008850#0 24008850#1 474485720 24302935 -390216943 -24511285#2 -24511285#1 -24511285#0 189364993#0 189364993#1 -693946719#1 -693946719#0 -178668743 -202630135 -387401256#1 -387401256#0 -290577631 -169218302#1 -169218302#0 -54883015 -290577629#1 -290577629#0 -17097227 -109592895 350217704#0 350217704#1 350217704#2 350217704#3 350217704#4 31787956 911970184 911970185 939228251 178668745 146911733 316354392" >
        <stop busStop="-3933810890" duration="20" until="93.0"/> <!-- See -->
        <stop busStop="3933810878" duration="20" until="240.0"/> <!-- Adenauerbrücke (oben) -->
        <stop busStop="4684341514" duration="20" until="350.0"/> <!-- Neckarfreibad -->
        <stop busStop="3933810887" duration="20" until="438.0"/> <!-- Schillerplatz -->
        <stop busStop="-1219607572" duration="20" until="583.0"/> <!-- Merkel'sches Bad -->
        <stop busStop="1254192526" duration="20" until="669.0"/> <!-- Pliensauturm -->
    </route>
    <route id="pt_bus_119:1" color="0,101,183" edges="231875718 755497923 755497927#0 755497927#1 755497929#0 755497929#1 755497929#2 231875742#0 231875742#1 231875742#2 755497921 1165983434#0 1165983434#1 255241187 926867310 -697552586 -255241186 -156261680 -156261679#1 -156261679#0 21310559 -30998714 -30998715 -926867314 -139468854 -439857030 -345736598 -926867318 -345736606 -265450242 -23182939 -926867322 -265461454 345736599 1157387459#0 1157387459#1 1157387459#2 11335855#0 11335855#1 265461445#0 265461445#1 169097422 265461443 345736597 345736596 423481788#0 423481788#1 220150011#0 220150011#1 423481777-AddedOnRampEdge 423481777 265461451 23205595 350147738 10492734#1 17096026 156260261 138203611#0 138203611#1 169218510#0 169218510#1 -17097227 -109592895 350217704#0 350217704#1 350217704#2 350217704#3 350217704#4 31787956 911970184 911970185 939228251 178668745 -332292229 -384972985 268558823#0 268558823#1" >
        <stop busStop="89026017" duration="20" until="90.0"/> <!-- Nellinger Linde -->
        <stop busStop="3933810885" duration="20" until="151.0"/> <!-- Mutzenreisstraße -->
        <stop busStop="2426004802" duration="20" until="247.0"/> <!-- Zollberg -->
        <stop busStop="-89023451" duration="20" until="313.0"/> <!-- Oberer Eisbergweg -->
        <stop busStop="-6550964524" duration="20" until="440.0"/> <!-- Im Holder -->
        <stop busStop="3523843331" duration="20" until="515.0"/> <!-- Weilstraße -->
        <stop busStop="3872841438" duration="20" until="628.0"/> <!-- Maille -->
        <stop busStop="1254192526" duration="20" until="711.0"/> <!-- Pliensauturm -->
        <stop busStop="3566577206" duration="20" until="788.0"/> <!-- Esslingen (N) ZOB -->
    </route>
    <route id="pt_bus_140:1" color="254,160,186" edges="-669561102 -38279881#1 -38279881#0 -169120176 -383983717#1 -383983717#0 -394615943 -4590683#4 -4590683#3 -4590683#2 -4590683#1 -4590683#0 383983721 169120177 -38361904 -39761675#3 -39761675#2 -39761675#1 -39761675#0 -38361905#1 -38361905#0 -38279874 -4590682#2 -4590682#1 -4590682#0 -23999290 -23999291#2 -23999291#1 -23999291#0 -1169441387 -1169441388 -1169441386 -331752492#2 -331752492#1 -331752492#0 -4811457 183419043#0 183419043#1 183419043#2 183419042#0 183419042#1 183419042#2 183419042#3 183419042#4 183419042#5 183419042#6 183419042#7 183419042#8 183419042#9 183419042#10 183419042#11 273990570 273990571#0 273990571#1 273990571#2 273990571#3 273990571#4 273990571#5 273990571#6 4811453#0 4811453#1 4811453#2 4811453#3 4811453#4 4811453#5 4811453#6 4811453#7 -275526211 -4807837#2 -4807837#1 -4807837#0 -54883018#3 -54883018#2 -54883018#1 -54883018#0 -693946719#1 -693946719#0 -178668743 -202630135 -387401256#1 -387401256#0 -290577631 -169218302#1 -169218302#0 -54883015 -290577629#1 -290577629#0 -17097227 -109592895 350217704#0 350217704#1 350217704#2 350217704#3 350217704#4 31787956 911970184 911970185 939228251 178668745 -332292229 268558821#0 268558821#1" >
        <stop busStop="-3872841449" duration="20" until="113.0"/> <!-- Zell Bahnhof -->
        <stop busStop="-29027281" duration="20" until="201.0"/> <!-- Alte Heusteige -->
        <stop busStop="434308192" duration="20" until="351.0"/> <!-- Lammgarten -->
        <stop busStop="-2626499005" duration="20" until="494.0"/> <!-- Charlottenplatz -->
        <stop busStop="1254192526" duration="20" until="753.0"/> <!-- Pliensauturm -->
        <stop busStop="3566577205" duration="20" until="827.0"/> <!-- Esslingen (N) ZOB -->
    </route>
    <route id="pt_bus_120:1" color="255,125,36" edges="231875718 755497923 755497927#0 755497927#1 755497929#0 755497929#1 755497929#2 231875742#0 231875742#1 231875742#2 755497921 1165983434#0 1165983434#1 255241187 926867310 -697552586 -255241186 -156261680 -156261679#1 -156261679#0 21310559 -30998714 -30998715 -926867314 -139468854 -439857030 -345736598 -926867318 -345736606 -265450242 -23182939 -926867322 -265461454 345736599 1157387459#0 1157387459#1 1157387459#2 11335855#0 11335855#1 265461445#0 265461445#1 169097422 265461443 345736597 345736596 423481788#0 423481788#1 220150011#0 220150011#1 423481777-AddedOnRampEdge 423481777 265461451 23205595 350147738 10492734#1 17096026 156260261 138203611#0 138203611#1 169218510#0 169218510#1 -17097227 -109592895 350217704#0 350217704#1 350217704#2 350217704#3 350217704#4 31787956 911970184 911970185 939228251 178668745 -332292229 -384972985 -384972984 384972991#0 384972991#1" >
        <stop busStop="89026017" duration="20" until="122.0"/> <!-- Nellinger Linde -->
        <stop busStop="3933810885" duration="20" until="183.0"/> <!-- Mutzenreisstraße -->
        <stop busStop="2426004802" duration="20" until="278.0"/> <!-- Zollberg -->
        <stop busStop="-89023451" duration="20" until="345.0"/> <!-- Oberer Eisbergweg -->
        <stop busStop="-6550964524" duration="20" until="471.0"/> <!-- Im Holder -->
        <stop busStop="3523843331" duration="20" until="547.0"/> <!-- Weilstraße -->
        <stop busStop="3872841438" duration="20" until="664.0"/> <!-- Maille -->
        <stop busStop="1254192526" duration="20" until="786.0"/> <!-- Pliensauturm -->
        <stop busStop="2739052081" duration="20" until="863.0"/> <!-- Esslingen (N) ZOB -->
    </route>
    <route id="pt_bus_X20:0" color="0,191,243" edges="50257938#0 50257938#1 50257938#2 232962013#0 232962013#1 488937080 232962012 399708758 50257937#0 50257937#1 50257937#2 50257937#3 50257937#4 50257937#5 50257937#6 50257937#7 50257937#8 280092576 13622269 387117386#0 387117386#1 387117386#2 387117386#3 387117387 1028791818 280092588#0 280092588#1 280092588#2 13622267 280092625#0 280092625#1 280092625#2 387212710#1 387212710#2 280128594#1 280128594#2 280128594#3 560583318 280092618 280092637 560583323 280092630 280092634#0 280092634#1 390062309 280092640 280128590 403701944 280092647 -280092621#1 -280092621#0 42229180#0 42229180#1 202499355#0 202499355#1 390062305 387155264 387155265 202499353#0 202499353#1 555758425#0 555758425#1 202499351#0 202499351#1 202499351#2 202499351#3 202555478#0 202555478#1 202555478#2 202555475#0 202555475#1 202555475#2 202555475#3 202555475#4 202555475#5 202555475#6 202555475#7 202555475#8 202555475#9 202555475#10 202555475#11 186037699#0 186037699#1 594324466 436153520 385405402 787900923 436153519 186037710 -281921554 -281956711#1 -281956711#0 -281956710#1 -281956710#0 385405398 385405409#0 385405409#1 785623013#1 281956714 787951056#1 385405407#0 385405407#1 385405407#2 787951055 785623014 787951054 8812305#1 386831075 386831074 694012903 4807760 694012901 4807779#0 4807779#1 694012899#0 694012899#1 38361911#0 38361911#1 4807781#0 4807781#1 4807784#1 661603871 661603873#0 661603873#1 387155259 10419532#0 10419532#1 156260261 138203611#0 138203611#1 169218510#0 169218510#1 -17097227 -109592895 350217704#0 350217704#1 350217704#2 350217704#3 350217704#4 31787956 911970184 911970185 939228251 178668745 -332292229 268558821#0 268558821#1" >
        <stop busStop="274718800" duration="20" until="55.0"/> <!-- Katzenkopf -->
        <stop busStop="1967351665" duration="20" until="468.0"/> <!-- Flandernstraße -->
        <stop busStop="3566577205" duration="20" until="994.0"/> <!-- Esslingen (N) ZOB -->
    </route>
    <route id="pt_bus_109:0" color="93,203,177" edges="-386500268#0 316354387#0 316354387#1 -135078201 -386832703#2 -386832703#1 -386832703#0 -442274138 -442274132 -169220423 378237356 442274136 442274140 29138343#0 29138343#1 488705428#0 488705428#1 488705428#2 -8026843 159822898 -442274142 -1168323015#1 -1168323015#0 -787951455 -410089906 592426952 199665487#0 199665487#1 956612326 23316365 794514058 1035471354 387296028#0 387296028#1 387296028#2 387155261#0 387155261#1 387155261#2 387155261#3 8026844#1 8026844#2 8026844#3 8026844#4 1035471357#0 1035471357#1 688229200 1035471358 24508781#0 24508781#1 24508781#2 24508781#3 558323894 24511216 387296035#0 387296035#1 387296035#2 387296035#3 387296035#4 387296035#5 387296035#6 387296035#7 387296035#8 558323895#0 558323895#1 558323895#2 558323895#3 558323895#4 558323895#5 558323895#6 558323895#7 31133694 24508759#0 24508759#1 24508759#2 24508759#3 24508759#4 24508759#5 24508759#6" >
        <stop busStop="-2648044989" duration="20" until="152.0"/> <!-- Schelztor -->
        <stop busStop="3904477569" duration="20" until="239.0"/> <!-- Marktplatz -->
        <stop busStop="2102263746" duration="20" until="448.0"/> <!-- Sulzgrieser Steige -->
        <stop busStop="3904477579" duration="20" until="512.0"/> <!-- Ebene -->
        <stop busStop="7370359009" duration="20" until="606.0"/> <!-- Krummenacker -->
        <stop busStop="2166264937" duration="20" until="677.0"/> <!-- Maienwalterstraße -->
        <stop busStop="2191707682" duration="20" until="764.0"/> <!-- Sulzgries Zentrum -->
        <stop busStop="6536527122" duration="20" until="839.0"/> <!-- Bürgerhaus RSKN -->
        <stop busStop="3904477586" duration="20" until="923.0"/> <!-- Paradiesweg -->
        <stop busStop="7370358995" duration="20" until="1015.0"/> <!-- Hinterer Holzweg -->
    </route>
    <route id="pt_bus_114:1" color="187,148,184" edges="-57852606#1 -57852606#0 -412792769#0 -412792770 -518394100 -846930959 -664200670#1 -664200670#0 -57852607#3 -57852607#2 -57852607#1 -57852607#0 -37181834#3 -37181834#2 -37181834#1 -37181834#0 -758088378#1 -758088378#0 -758088380 -696225646#3 -696225646#2 -696225646#1 -696225646#0 696225651#0 696225651#1 -22889927#4 -22889927#3 -22889927#2 -22889927#1 -22889927#0 -758088377#2 -758088377#1 -758088377#0 -758088376#1 -758088376#0 -38361908#1 -38361908#0 -183049933#3 -183049933#0 -1164287131#2 -1164287131#1 -1164287131#0 38361907 183419043#0 183419043#1 183419043#2 183419042#0 183419042#1 183419042#2 183419042#3 183419042#4 183419042#5 183419042#6 183419042#7 183419042#8 183419042#9 183419042#10 183419042#11 273990570 273990571#0 273990571#1 273990571#2 273990571#3 273990571#4 273990571#5 273990571#6 4811453#0 4811453#1 4811453#2 4811453#3 4811453#4 4811453#5 4811453#6 4811453#7 -275526211 -4807837#2 -4807837#1 -4807837#0 -54883018#3 -54883018#2 -54883018#1 -54883018#0 -693946719#1 -693946719#0 -178668743 -202630135 -387401256#1 -387401256#0 -290577631 -169218302#1 -169218302#0 -54883015 -290577629#1 -290577629#0 -17097227 -109592895 350217704#0 350217704#1 350217704#2 350217704#3 350217704#4 31787956 911970184 911970185 939228251 178668745 -332292229 -384972985 -384972984 384972991#0 384972991#1" >