<?xml version="1.0" encoding="UTF-8"?>

<!-- generated on 2023-05-18 14:38:27.011988 by osmWebWizard.py v1_16_0+0000-94ec4c6cd72
<configuration>
    <begin value="0"/>
    <end value="3600"/>
    <fringe-factor value="2"/>
    <fringe-start-attributes value="departSpeed=&quot;max&quot;"/>
    <insertion-density value="6.0"/>
    <max-distance value="8000.0"/>
    <net-file value="C:\Users\sader\Sumo\2023-05-18-14-37-49\osm.net.xml.gz"/>
    <remove-loops value="True"/>
    <route-file value="C:\Users\sader\Sumo\2023-05-18-14-37-49\osm.bicycle.rou.xml"/>
    <trip-attributes value="departLane=&quot;best&quot;"/>
    <output-trip-file value="C:\Users\sader\Sumo\2023-05-18-14-37-49\osm.bicycle.trips.xml"/>
    <prefix value="bike"/>
    <validate value="True"/>
    <vclass value="bicycle"/>
    <vehicle-class value="bicycle"/>
</configuration>
-->

<!-- generated on 2023-05-18 14:38:20 by Eclipse SUMO duarouter Version 1.16.0
<configuration xmlns:xsi="http://www.w3.org/2001/XMLSchema-instance" xsi:noNamespaceSchemaLocation="http://sumo.dlr.de/xsd/duarouterConfiguration.xsd">

    <input>
        <net-file value="C:\Users\sader\Sumo\2023-05-18-14-37-49\osm.net.xml.gz"/>
        <route-files value="C:\Users\sader\Sumo\2023-05-18-14-37-49\osm.bicycle.trips.xml"/>
    </input>

    <output>
        <output-file value="C:\Users\sader\Sumo\2023-05-18-14-37-49\osm.bicycle.trips.xml.tmp"/>
        <alternatives-output value="NUL"/>
        <write-trips value="true"/>
    </output>

    <processing>
        <remove-loops value="true"/>
    </processing>

    <time>
        <begin value="0"/>
        <end value="3600"/>
    </time>

    <report>
        <no-warnings value="true"/>
        <ignore-errors value="true"/>
        <no-step-log value="true"/>
    </report>

</configuration>
-->

<routes xmlns:xsi="http://www.w3.org/2001/XMLSchema-instance" xsi:noNamespaceSchemaLocation="http://sumo.dlr.de/xsd/routes_file.xsd">
    <vType id="bike_bicycle" vClass="bicycle"/>
    <trip id="bike0" type="bike_bicycle" depart="0.00" departLane="best" from="23184030#1" to="-124051723#0"/>
    <trip id="bike1" type="bike_bicycle" depart="0.74" departLane="best" from="29214740#1" to="-266652828#2"/>
    <trip id="bike2" type="bike_bicycle" depart="1.48" departLane="best" from="-260845294" to="25214140#0"/>
    <trip id="bike3" type="bike_bicycle" depart="2.22" departLane="best" from="442274134" to="211686719"/>
    <trip id="bike4" type="bike_bicycle" depart="2.96" departLane="best" departSpeed="max" from="-541496143" to="-127314436#1"/>
    <trip id="bike5" type="bike_bicycle" depart="3.70" departLane="best" from="25708673#5" to="158355468#7"/>
    <trip id="bike6" type="bike_bicycle" depart="4.44" departLane="best" from="-12099346#2" to="25708673#1"/>
    <trip id="bike7" type="bike_bicycle" depart="5.18" departLane="best" from="23275169#1" to="186037710"/>
    <trip id="bike8" type="bike_bicycle" depart="5.92" departLane="best" departSpeed="max" from="-257338541#1" to="23138699#0"/>
    <trip id="bike9" type="bike_bicycle" depart="6.66" departLane="best" from="332195429#1" to="-1054510632#0"/>
    <trip id="bike10" type="bike_bicycle" depart="7.40" departLane="best" from="32136797" to="25935611"/>
    <trip id="bike11" type="bike_bicycle" depart="8.14" departLane="best" from="38360676#0" to="-23471084#2"/>
    <trip id="bike12" type="bike_bicycle" depart="8.88" departLane="best" from="-70531942#5" to="41949228#1"/>
    <trip id="bike13" type="bike_bicycle" depart="9.61" departLane="best" departSpeed="max" from="-202223914" to="22946802#7"/>
    <trip id="bike14" type="bike_bicycle" depart="10.35" departLane="best" from="-38505180#2" to="23184035"/>
    <trip id="bike15" type="bike_bicycle" depart="11.09" departLane="best" departSpeed="max" from="323107046" to="-272649268#0"/>
    <trip id="bike16" type="bike_bicycle" depart="11.83" departLane="best" from="135078199#4" to="902302668"/>
    <trip id="bike18" type="bike_bicycle" depart="13.31" departLane="best" from="37181837#4" to="23312959#1"/>
    <trip id="bike19" type="bike_bicycle" depart="14.05" departLane="best" from="387498734#0" to="23032792#4"/>
    <trip id="bike20" type="bike_bicycle" depart="14.79" departLane="best" from="24957246#19" to="159698915#0"/>
    <trip id="bike21" type="bike_bicycle" depart="15.53" departLane="best" from="-25935609#3" to="36779459#1"/>
    <trip id="bike22" type="bike_bicycle" depart="16.27" departLane="best" from="183553575#1" to="273990571#2"/>
    <trip id="bike23" type="bike_bicycle" depart="17.01" departLane="best" from="-211686719" to="340172866#9"/>
    <trip id="bike24" type="bike_bicycle" depart="17.75" departLane="best" from="-518394125" to="-4811292"/>
    <trip id="bike25" type="bike_bicycle" depart="18.49" departLane="best" departSpeed="max" from="-404783331" to="-25973407#1"/>
    <trip id="bike26" type="bike_bicycle" depart="19.23" departLane="best" from="282981260#4" to="383945635#1"/>
    <trip id="bike27" type="bike_bicycle" depart="19.97" departLane="best" from="23275118#3" to="23192896#0"/>
    <trip id="bike28" type="bike_bicycle" depart="20.71" departLane="best" from="-23471024#2" to="-272649266#0"/>
    <trip id="bike29" type="bike_bicycle" depart="21.45" departLane="best" from="23320720#5" to="-54883366#3"/>
    <trip id="bike30" type="bike_bicycle" depart="22.19" departLane="best" from="92134491" to="23471075"/>
    <trip id="bike31" type="bike_bicycle" depart="22.93" departLane="best" from="-167641329" to="-25651383#11"/>
    <trip id="bike32" type="bike_bicycle" depart="23.67" departLane="best" from="383945636#0" to="317594345#0"/>
    <trip id="bike33" type="bike_bicycle" depart="24.41" departLane="best" from="-259423427#0" to="-133523312"/>
    <trip id="bike34" type="bike_bicycle" depart="25.15" departLane="best" from="-345736598" to="-317594345#24"/>
    <trip id="bike35" type="bike_bicycle" depart="25.89" departLane="best" departSpeed="max" from="-25497535" to="694012902#0"/>
    <trip id="bike36" type="bike_bicycle" depart="26.63" departLane="best" from="411123214#2" to="387212679#0"/>
    <trip id="bike37" type="bike_bicycle" depart="27.37" departLane="best" from="-23312967#1" to="-387155257#1"/>
    <trip id="bike38" type="bike_bicycle" depart="28.10" departLane="best" from="493291932#1" to="110463617"/>
    <trip id="bike39" type="bike_bicycle" depart="28.84" departLane="best" from="-281966910#1" to="29139497#2"/>
    <trip id="bike40" type="bike_bicycle" depart="29.58" departLane="best" from="169127797" to="-31155476#6"/>
    <trip id="bike42" type="bike_bicycle" depart="31.06" departLane="best" from="47241806#1" to="26614511#0"/>
    <trip id="bike43" type="bike_bicycle" depart="31.80" departLane="best" from="-956612326" to="16361898#1"/>
    <trip id="bike44" type="bike_bicycle" depart="32.54" departLane="best" from="-199665487#0" to="16361889#1"/>
    <trip id="bike45" type="bike_bicycle" depart="33.28" departLane="best" from="22946794#0" to="23320633#4"/>
    <trip id="bike46" type="bike_bicycle" depart="34.02" departLane="best" from="-30998710#3" to="-89290458#1"/>
    <trip id="bike47" type="bike_bicycle" depart="34.76" departLane="best" from="-168353186#4" to="560583330"/>
    <trip id="bike48" type="bike_bicycle" depart="35.50" departLane="best" from="-9514889#1" to="173309328#2"/>
    <trip id="bike49" type="bike_bicycle" depart="36.24" departLane="best" from="864649673" to="41949228#0"/>
    <trip id="bike50" type="bike_bicycle" depart="36.98" departLane="best" from="-109592901" to="26684108#3"/>
    <trip id="bike51" type="bike_bicycle" depart="37.72" departLane="best" departSpeed="max" from="23528224#0" to="184153437#1"/>
    <trip id="bike52" type="bike_bicycle" depart="38.46" departLane="best" from="-282981260#2" to="23471078#6"/>
    <trip id="bike53" type="bike_bicycle" depart="39.20" departLane="best" from="-22946802#6" to="-925049207"/>
    <trip id="bike54" type="bike_bicycle" depart="39.94" departLane="best" departSpeed="max" from="-701688236" to="751383409#1"/>
    <trip id="bike55" type="bike_bicycle" depart="40.68" departLane="best" from="-409834752" to="31157172#8"/>
    <trip id="bike56" type="bike_bicycle" depart="41.42" departLane="best" from="-1023926180#1" to="24608421#1"/>
    <trip id="bike57" type="bike_bicycle" depart="42.16" departLane="best" from="4811453#3" to="431767318#0"/>
    <trip id="bike58" type="bike_bicycle" depart="42.90" departLane="best" from="-317594345#6" to="23471054#1"/>
    <trip id="bike59" type="bike_bicycle" depart="43.64" departLane="best" from="22910608#1" to="-23471056#1"/>
    <trip id="bike61" type="bike_bicycle" depart="45.12" departLane="best" from="29138344" to="176337396#0"/>
    <trip id="bike62" type="bike_bicycle" depart="45.86" departLane="best" departSpeed="max" from="-1020368378" to="-391867979#0"/>
    <trip id="bike63" type="bike_bicycle" depart="46.59" departLane="best" departSpeed="max" from="-1162631190" to="60430429#1"/>
    <trip id="bike64" type="bike_bicycle" depart="47.33" departLane="best" from="41949229#3" to="-385902869#0"/>
    <trip id="bike65" type="bike_bicycle" depart="48.07" departLane="best" from="-331752492#0" to="170499455#2"/>
    <trip id="bike66" type="bike_bicycle" depart="48.81" departLane="best" from="-41949225#0" to="387296014#1"/>
    <trip id="bike67" type="bike_bicycle" depart="49.55" departLane="best" departSpeed="max" from="-186029470" to="128115937#3"/>
    <trip id="bike68" type="bike_bicycle" depart="50.29" departLane="best" from="-169127822#0" to="30010698#0"/>
    <trip id="bike69" type="bike_bicycle" depart="51.03" departLane="best" from="27531049#5" to="-23195847"/>
    <trip id="bike70" type="bike_bicycle" depart="51.77" departLane="best" from="903593363" to="202223882"/>
    <trip id="bike71" type="bike_bicycle" depart="52.51" departLane="best" from="281966912" to="-432904419#1"/>
    <trip id="bike72" type="bike_bicycle" depart="53.25" departLane="best" from="54883018#2" to="260983469#0"/>
    <trip id="bike73" type="bike_bicycle" depart="53.99" departLane="best" from="13861895" to="-272649268#0"/>
    <trip id="bike74" type="bike_bicycle" depart="54.73" departLane="best" from="-24621859#1" to="-386239008"/>
    <trip id="bike75" type="bike_bicycle" depart="55.47" departLane="best" from="9514888#10" to="23528284#19"/>
    <trip id="bike76" type="bike_bicycle" depart="56.21" departLane="best" from="-607151535#2" to="169096483#3"/>
    <trip id="bike77" type="bike_bicycle" depart="56.95" departLane="best" from="-23093001" to="26684342#0"/>
    <trip id="bike78" type="bike_bicycle" depart="57.69" departLane="best" from="-380001159" to="23111652#2"/>
    <trip id="bike79" type="bike_bicycle" depart="58.43" departLane="best" from="-25973401#1" to="-26615070#2"/>
    <trip id="bike80" type="bike_bicycle" depart="59.17" departLane="best" from="-170499443#1" to="23439906#3"/>
    <trip id="bike81" type="bike_bicycle" depart="59.91" departLane="best" departSpeed="max" from="-25935621#2" to="519346533#0"/>
    <trip id="bike82" type="bike_bicycle" depart="60.65" departLane="best" from="387401266" to="-185953706#0"/>
    <trip id="bike83" type="bike_bicycle" depart="61.39" departLane="best" from="-263265817" to="24791522#1"/>
    <trip id="bike84" type="bike_bicycle" depart="62.13" departLane="best" from="-25577011#4" to="-23275165#2"/>
    <trip id="bike85" type="bike_bicycle" depart="62.87" departLane="best" departSpeed="max" from="591241988#0" to="22946801#0"/>
    <trip id="bike86" type="bike_bicycle" depart="63.61" departLane="best" departSpeed="max" from="-894380145" to="324058230#1"/>
    <trip id="bike87" type="bike_bicycle" depart="64.35" departLane="best" from="324058230#1" to="-25415556#3"/>
    <trip id="bike88" type="bike_bicycle" depart="65.08" departLane="best" from="-202572141#0" to="-91381539#1"/>
    <trip id="bike89" type="bike_bicycle" depart="65.82" departLane="best" from="54883366#3" to="1162631190"/>
    <trip id="bike90" type="bike_bicycle" depart="66.56" departLane="best" from="258841359#5" to="-25201278#0"/>
    <trip id="bike91" type="bike_bicycle" depart="67.30" departLane="best" from="91380172#0" to="-22955424#0"/>
    <trip id="bike92" type="bike_bicycle" depart="68.04" departLane="best" from="-4807751#0" to="42326228"/>
    <trip id="bike93" type="bike_bicycle" depart="68.78" departLane="best" from="387498733#3" to="29214851#1"/>
    <trip id="bike94" type="bike_bicycle" depart="69.52" departLane="best" departSpeed="max" from="-23999280#2" to="1035471373"/>
    <trip id="bike95" type="bike_bicycle" depart="70.26" departLane="best" departSpeed="max" from="-541496143" to="-34071991#1"/>
    <trip id="bike96" type="bike_bicycle" depart="71.00" departLane="best" from="26733995#1" to="5783243#0"/>
    <trip id="bike97" type="bike_bicycle" depart="71.74" departLane="best" from="654570576#1" to="41949229#2"/>
    <trip id="bike98" type="bike_bicycle" depart="72.48" departLane="best" from="-158518707#1" to="-167641322#5"/>
    <trip id="bike99" type="bike_bicycle" depart="73.22" departLane="best" from="974776882" to="387155262"/>
    <trip id="bike100" type="bike_bicycle" depart="73.96" departLane="best" from="-825116598" to="-59054089#0"/>
    <trip id="bike101" type="bike_bicycle" depart="74.70" departLane="best" from="38507298#6" to="23549661"/>
    <trip id="bike102" type="bike_bicycle" depart="75.44" departLane="best" departSpeed="max" from="-916506298" to="26249176#1"/>
    <trip id="bike103" type="bike_bicycle" depart="76.18" departLane="best" from="-474485741#0" to="-17079940#0"/>
    <trip id="bike104" type="bike_bicycle" depart="76.92" departLane="best" from="-42326227#0" to="921020466#0"/>
    <trip id="bike105" type="bike_bicycle" depart="77.66" departLane="best" from="-281966915#3" to="32197257"/>
    <trip id="bike106" type="bike_bicycle" depart="78.40" departLane="best" from="-70531942#0" to="89891547#0"/>
    <trip id="bike107" type="bike_bicycle" depart="79.14" departLane="best" from="70531948#0" to="95158558#1"/>
    <trip id="bike108" type="bike_bicycle" depart="79.88" departLane="best" departSpeed="max" from="167246702" to="26633652#0"/>
    <trip id="bike109" type="bike_bicycle" depart="80.62" departLane="best" from="-23312957#1" to="-37764910#0"/>
    <trip id="bike110" type="bike_bicycle" depart="81.36" departLane="best" from="146908203#1" to="23032883#3"/>
    <trip id="bike111" type="bike_bicycle" depart="82.10" departLane="best" from="149650130#2" to="-29036040#1"/>
    <trip id="bike112" type="bike_bicycle" depart="82.84" departLane="best" from="158518101" to="23094756#1"/>
    <trip id="bike113" type="bike_bicycle" depart="83.57" departLane="best" from="-1035471367#1" to="-399038515#5"/>
    <trip id="bike114" type="bike_bicycle" depart="84.31" departLane="best" departSpeed="max" from="-23316380#1" to="80083709#2"/>
    <trip id="bike115" type="bike_bicycle" depart="85.05" departLane="best" from="184057997#2" to="-25201278#0"/>
    <trip id="bike116" type="bike_bicycle" depart="85.79" departLane="best" from="-202421489#0" to="25213492"/>
    <trip id="bike117" type="bike_bicycle" depart="86.53" departLane="best" from="-26249174#0" to="-23163787#2"/>
    <trip id="bike118" type="bike_bicycle" depart="87.27" departLane="best" from="436153517" to="290885617#1"/>
    <trip id="bike119" type="bike_bicycle" depart="88.01" departLane="best" from="-200190588#0" to="23312962#5"/>
    <trip id="bike120" type="bike_bicycle" depart="88.75" departLane="best" from="53564794" to="23093191#1"/>
    <trip id="bike121" type="bike_bicycle" depart="89.49" departLane="best" from="118976653" to="640561280#1"/>
    <trip id="bike122" type="bike_bicycle" depart="90.23" departLane="best" from="-25072810#1" to="26632895#1"/>
    <trip id="bike123" type="bike_bicycle" depart="90.97" departLane="best" departSpeed="max" from="-263698105" to="-688219966"/>
    <trip id="bike124" type="bike_bicycle" depart="91.71" departLane="best" from="23471026#1" to="-37836509"/>
    <trip id="bike125" type="bike_bicycle" depart="92.45" departLane="best" from="-345744158#1" to="29214543#0"/>
    <trip id="bike126" type="bike_bicycle" depart="93.19" departLane="best" departSpeed="max" from="-17085293" to="-1103106604#0"/>
    <trip id="bike127" type="bike_bicycle" depart="93.93" departLane="best" from="96454741#1" to="957430660"/>
    <trip id="bike128" type="bike_bicycle" depart="94.67" departLane="best" from="17096975#2" to="26249172#1"/>
    <trip id="bike129" type="bike_bicycle" depart="95.41" departLane="best" from="-281966915#3" to="-613399395"/>
    <trip id="bike130" type="bike_bicycle" depart="96.15" departLane="best" from="42229180#0" to="446118989"/>
    <trip id="bike131" type="bike_bicycle" depart="96.89" departLane="best" departSpeed="max" from="-401248962" to="23471139#1"/>
    <trip id="bike132" type="bike_bicycle" depart="97.63" departLane="best" from="37764829#1" to="260983469#5"/>
    <trip id="bike133" type="bike_bicycle" depart="98.37" departLane="best" from="-22946802#8" to="-92941927#2"/>
    <trip id="bike134" type="bike_bicycle" depart="99.11" departLane="best" from="-15021494#8" to="-1079774975"/>
    <trip id="bike135" type="bike_bicycle" depart="99.85" departLane="best" from="-220881239" to="-378237412"/>
    <trip id="bike136" type="bike_bicycle" depart="100.59" departLane="best" from="23320720#4" to="688229199"/>
    <trip id="bike137" type="bike_bicycle" depart="101.33" departLane="best" from="-23163759#7" to="23151869#1"/>
    <trip id="bike138" type="bike_bicycle" depart="102.06" departLane="best" from="-22889927#0" to="202499354"/>
    <trip id="bike139" type="bike_bicycle" depart="102.80" departLane="best" from="290461455#1" to="231875724#1"/>
    <trip id="bike140" type="bike_bicycle" depart="103.54" departLane="best" from="25576697#3" to="25816922#0"/>
    <trip id="bike141" type="bike_bicycle" depart="104.28" departLane="best" from="23163779#1" to="38504273"/>
    <trip id="bike142" type="bike_bicycle" depart="105.02" departLane="best" departSpeed="max" from="-937818257#1" to="518394132#1"/>
    <trip id="bike144" type="bike_bicycle" depart="106.50" departLane="best" from="54883366#3" to="-33884627#1"/>
    <trip id="bike145" type="bike_bicycle" depart="107.24" departLane="best" from="-1035471361" to="31157172#3"/>
    <trip id="bike146" type="bike_bicycle" depart="107.98" departLane="best" from="23182939" to="31155472#1"/>
    <trip id="bike147" type="bike_bicycle" depart="108.72" departLane="best" from="26249185#3" to="202491392"/>
    <trip id="bike148" type="bike_bicycle" depart="109.46" departLane="best" from="-561591786#5" to="-1088879820"/>
    <trip id="bike149" type="bike_bicycle" depart="110.20" departLane="best" from="-173309326" to="449553104#2"/>
    <trip id="bike151" type="bike_bicycle" depart="111.68" departLane="best" from="-378237356" to="23093183"/>
    <trip id="bike152" type="bike_bicycle" depart="112.42" departLane="best" from="-23220037#0" to="-231912754"/>
    <trip id="bike153" type="bike_bicycle" depart="113.16" departLane="best" from="-33563216" to="4811453#7"/>
    <trip id="bike154" type="bike_bicycle" depart="113.90" departLane="best" from="31155472#1" to="41949225#1"/>
    <trip id="bike155" type="bike_bicycle" depart="114.64" departLane="best" from="-45524884#6" to="-25973410#10"/>
    <trip id="bike156" type="bike_bicycle" depart="115.38" departLane="best" from="-26733892#0" to="-23032884#4"/>
    <trip id="bike157" type="bike_bicycle" depart="116.12" departLane="best" from="-29214543#1" to="45524884#6"/>
    <trip id="bike158" type="bike_bicycle" depart="116.86" departLane="best" from="-4807880#1" to="23312969#3"/>
    <trip id="bike159" type="bike_bicycle" depart="117.60" departLane="best" from="23312956#2" to="607151534"/>
    <trip id="bike160" type="bike_bicycle" depart="118.34" departLane="best" from="391056746#4" to="9054585#2"/>
    <trip id="bike161" type="bike_bicycle" depart="119.08" departLane="best" from="33565659#0" to="448974991"/>
    <trip id="bike162" type="bike_bicycle" depart="119.82" departLane="best" from="-12098782#2" to="275477749"/>
    <trip id="bike163" type="bike_bicycle" depart="120.55" departLane="best" from="-37764820#0" to="607152571"/>
    <trip id="bike164" type="bike_bicycle" depart="121.29" departLane="best" from="317594345#23" to="42229184#0"/>
    <trip id="bike165" type="bike_bicycle" depart="122.03" departLane="best" from="33565649" to="-317594345#13"/>
    <trip id="bike166" type="bike_bicycle" depart="122.77" departLane="best" from="30010691#7" to="-23108331#0"/>
    <trip id="bike167" type="bike_bicycle" depart="123.51" departLane="best" from="400416445#3" to="410089905"/>
    <trip id="bike168" type="bike_bicycle" depart="124.25" departLane="best" from="-25808198" to="378237362#3"/>
    <trip id="bike169" type="bike_bicycle" depart="124.99" departLane="best" from="-1035471367#0" to="383945636#2"/>
    <trip id="bike170" type="bike_bicycle" depart="125.73" departLane="best" from="31155462#0" to="26946508"/>
    <trip id="bike171" type="bike_bicycle" depart="126.47" departLane="best" from="118972421#3" to="-25576697#2"/>
    <trip id="bike172" type="bike_bicycle" depart="127.21" departLane="best" departSpeed="max" from="-372206694" to="42229186"/>
    <trip id="bike173" type="bike_bicycle" depart="127.95" departLane="best" from="8026679#4" to="-341243972"/>
    <trip id="bike174" type="bike_bicycle" depart="128.69" departLane="best" from="231875724#3" to="-694075457"/>
    <trip id="bike175" type="bike_bicycle" depart="129.43" departLane="best" departSpeed="max" from="911891302#0" to="-183419042#9"/>
    <trip id="bike176" type="bike_bicycle" depart="130.17" departLane="best" from="611784190" to="23151869#0"/>
    <trip id="bike177" type="bike_bicycle" depart="130.91" departLane="best" from="-8571802#4" to="24608421#0"/>
    <trip id="bike178" type="bike_bicycle" depart="131.65" departLane="best" from="78043849#1" to="31646609#2"/>
    <trip id="bike179" type="bike_bicycle" depart="132.39" departLane="best" departSpeed="max" from="-22910605" to="-921020463#0"/>
    <trip id="bike180" type="bike_bicycle" depart="133.13" departLane="best" departSpeed="max" from="258841359#0" to="-386851193#1"/>
    <trip id="bike181" type="bike_bicycle" depart="133.87" departLane="best" departSpeed="max" from="22793652#0" to="-164232291#2"/>
    <trip id="bike182" type="bike_bicycle" depart="134.61" departLane="best" from="432904418" to="23032788#4"/>
    <trip id="bike183" type="bike_bicycle" depart="135.35" departLane="best" from="27246640" to="26249193#1"/>
    <trip id="bike184" type="bike_bicycle" depart="136.09" departLane="best" from="-1023926180#0" to="587472387#2"/>
    <trip id="bike185" type="bike_bicycle" depart="136.83" departLane="best" from="138203611#0" to="266652831"/>
    <trip id="bike186" type="bike_bicycle" depart="137.57" departLane="best" departSpeed="max" from="262918658" to="-24957246#5"/>
    <trip id="bike187" type="bike_bicycle" depart="138.31" departLane="best" from="-399038513#11" to="-184749081#4"/>
    <trip id="bike188" type="bike_bicycle" depart="139.04" departLane="best" from="23320738#0" to="-400416445#10"/>
    <trip id="bike189" type="bike_bicycle" depart="139.78" departLane="best" from="-34393477#0" to="393019011#0"/>
    <trip id="bike190" type="bike_bicycle" depart="140.52" departLane="best" from="25651383#4" to="379537581"/>
    <trip id="bike191" type="bike_bicycle" depart="141.26" departLane="best" departSpeed="max" from="-33565555#1" to="24008842"/>
    <trip id="bike192" type="bike_bicycle" depart="142.00" departLane="best" from="-4807746#3" to="37721066#1"/>
    <trip id="bike193" type="bike_bicycle" depart="142.74" departLane="best" departSpeed="max" from="-23111653" to="-881678626#5"/>
    <trip id="bike195" type="bike_bicycle" depart="144.22" departLane="best" from="474485721" to="23275231#2"/>
    <trip id="bike196" type="bike_bicycle" depart="144.96" departLane="best" departSpeed="max" from="-317594546" to="192727738"/>
    <trip id="bike197" type="bike_bicycle" depart="145.70" departLane="best" departSpeed="max" from="-1016666957" to="36128955#1"/>
    <trip id="bike198" type="bike_bicycle" depart="146.44" departLane="best" departSpeed="max" from="-573245210" to="23059671#3"/>
    <trip id="bike199" type="bike_bicycle" depart="147.18" departLane="best" from="23312962#7" to="-115373654#9"/>
    <trip id="bike200" type="bike_bicycle" depart="147.92" departLane="best" from="-640561279#1" to="26249176#1"/>
    <trip id="bike201" type="bike_bicycle" depart="148.66" departLane="best" from="896339462" to="-134520049#1"/>
    <trip id="bike202" type="bike_bicycle" depart="149.40" departLane="best" from="31155472#0" to="-23999282#3"/>
    <trip id="bike203" type="bike_bicycle" depart="150.14" departLane="best" departSpeed="max" from="-186029459" to="168355063"/>
    <trip id="bike204" type="bike_bicycle" depart="150.88" departLane="best" from="23163769#0" to="-412792786"/>
    <trip id="bike205" type="bike_bicycle" depart="151.62" departLane="best" from="-345736605" to="29214246"/>
    <trip id="bike206" type="bike_bicycle" depart="152.36" departLane="best" from="-23471045#1" to="-26684341#1"/>
    <trip id="bike207" type="bike_bicycle" depart="153.10" departLane="best" from="24608397#1" to="-122025256#9"/>
    <trip id="bike208" type="bike_bicycle" depart="153.84" departLane="best" from="-26633255#1" to="121495767#1"/>
    <trip id="bike210" type="bike_bicycle" depart="155.32" departLane="best" from="525471069#1" to="23320799#1"/>
    <trip id="bike211" type="bike_bicycle" depart="156.06" departLane="best" from="-24436947" to="25901344#1"/>
    <trip id="bike212" type="bike_bicycle" depart="156.80" departLane="best" from="-9515416#3" to="-287272584#3"/>
    <trip id="bike213" type="bike_bicycle" depart="157.53" departLane="best" departSpeed="max" from="23312971#0" to="-10417275#0"/>
    <trip id="bike214" type="bike_bicycle" depart="158.27" departLane="best" from="-26683916#0" to="-31155472#2"/>
    <trip id="bike215" type="bike_bicycle" depart="159.01" departLane="best" from="22793815#0" to="-9054584#10"/>
    <trip id="bike216" type="bike_bicycle" depart="159.75" departLane="best" from="-23471083#3" to="783691399"/>
    <trip id="bike217" type="bike_bicycle" depart="160.49" departLane="best" from="1157387449#1" to="167641322#1"/>
    <trip id="bike218" type="bike_bicycle" depart="161.23" departLane="best" from="-26686029#0" to="393624986#1"/>
    <trip id="bike219" type="bike_bicycle" depart="161.97" departLane="best" from="-717160902#1" to="-36128955#3"/>
    <trip id="bike220" type="bike_bicycle" depart="162.71" departLane="best" from="-23442294#0" to="93587158#1"/>
    <trip id="bike221" type="bike_bicycle" depart="163.45" departLane="best" from="-202491392" to="702302160"/>
    <trip id="bike222" type="bike_bicycle" depart="164.19" departLane="best" from="439857024#8" to="23275122#0"/>
    <trip id="bike223" type="bike_bicycle" depart="164.93" departLane="best" departSpeed="max" from="25651383#0" to="158355468#1"/>
    <trip id="bike224" type="bike_bicycle" depart="165.67" departLane="best" from="-37432216" to="192727738"/>
    <trip id="bike225" type="bike_bicycle" depart="166.41" departLane="best" from="-448974996#0" to="282981272"/>
    <trip id="bike226" type="bike_bicycle" depart="167.15" departLane="best" departSpeed="max" from="-902302668" to="-30998716#1"/>
    <trip id="bike227" type="bike_bicycle" depart="167.89" departLane="best" from="-26683916#0" to="23471030"/>
    <trip id="bike228" type="bike_bicycle" depart="168.63" departLane="best" from="27531049#5" to="169131112#1"/>
    <trip id="bike229" type="bike_bicycle" depart="169.37" departLane="best" from="23138700" to="-334151143"/>
    <trip id="bike230" type="bike_bicycle" depart="170.11" departLane="best" from="181647035" to="-35897001"/>
    <trip id="bike231" type="bike_bicycle" depart="170.85" departLane="best" from="29036825#3" to="-387498726"/>
    <trip id="bike232" type="bike_bicycle" depart="171.59" departLane="best" from="-148832630#0" to="-23320404#0"/>
    <trip id="bike233" type="bike_bicycle" depart="172.33" departLane="best" from="-25973409#0" to="258819167"/>
    <trip id="bike234" type="bike_bicycle" depart="173.07" departLane="best" departSpeed="max" from="250004209" to="173309331#1"/>
    <trip id="bike235" type="bike_bicycle" depart="173.81" departLane="best" from="-4811453#5" to="186029470"/>
    <trip id="bike236" type="bike_bicycle" depart="174.55" departLane="best" from="-53563626#0" to="-25935603#1"/>
    <trip id="bike237" type="bike_bicycle" depart="175.29" departLane="best" from="537356312#2" to="518394114#0"/>
    <trip id="bike239" type="bike_bicycle" depart="176.76" departLane="best" from="387212710#1" to="30998700#2"/>
    <trip id="bike240" type="bike_bicycle" depart="177.50" departLane="best" departSpeed="max" from="-424440857" to="1042248950#0"/>
    <trip id="bike241" type="bike_bicycle" depart="178.24" departLane="best" from="-387212679#0" to="29214851#0"/>
    <trip id="bike243" type="bike_bicycle" depart="179.72" departLane="best" from="-53564624#1" to="-287272584#3"/>
    <trip id="bike244" type="bike_bicycle" depart="180.46" departLane="best" from="156260261" to="23184028#3"/>
    <trip id="bike245" type="bike_bicycle" depart="181.20" departLane="best" from="-25752783#0" to="26614529#0"/>
    <trip id="bike246" type="bike_bicycle" depart="181.94" departLane="best" departSpeed="max" from="-59698859" to="-127314424#4"/>
    <trip id="bike247" type="bike_bicycle" depart="182.68" departLane="best" from="378237417#0" to="-25415491"/>
    <trip id="bike248" type="bike_bicycle" depart="183.42" departLane="best" from="-4807772#1" to="23528370"/>
    <trip id="bike249" type="bike_bicycle" depart="184.16" departLane="best" from="-84913183#3" to="-231912755"/>