<?xml version="1.0" encoding="UTF-8"?>

<!-- generated on 2023-05-18 14:38:37.492047 by osmWebWizard.py v1_16_0+0000-94ec4c6cd72
<configuration>
    <begin value="0"/>
    <end value="3600"/>
    <fringe-factor value="2"/>
    <fringe-start-attributes value="departSpeed=&quot;max&quot;"/>
    <insertion-density value="4.0"/>
    <max-distance value="1200.0"/>
    <net-file value="C:\Users\sader\Sumo\2023-05-18-14-37-49\osm.net.xml.gz"/>
    <remove-loops value="True"/>
    <route-file value="C:\Users\sader\Sumo\2023-05-18-14-37-49\osm.motorcycle.rou.xml"/>
    <trip-attributes value="departLane=&quot;best&quot;"/>
    <output-trip-file value="C:\Users\sader\Sumo\2023-05-18-14-37-49\osm.motorcycle.trips.xml"/>
    <prefix value="motorcycle"/>
    <validate value="True"/>
    <vclass value="motorcycle"/>
    <vehicle-class value="motorcycle"/>
</configuration>
-->

<!-- generated on 2023-05-18 14:38:36 by Eclipse SUMO duarouter Version 1.16.0
<configuration xmlns:xsi="http://www.w3.org/2001/XMLSchema-instance" xsi:noNamespaceSchemaLocation="http://sumo.dlr.de/xsd/duarouterConfiguration.xsd">

    <input>
        <net-file value="C:\Users\sader\Sumo\2023-05-18-14-37-49\osm.net.xml.gz"/>
        <route-files value="C:\Users\sader\Sumo\2023-05-18-14-37-49\osm.motorcycle.trips.xml"/>
    </input>

    <output>
        <output-file value="C:\Users\sader\Sumo\2023-05-18-14-37-49\osm.motorcycle.trips.xml.tmp"/>
        <alternatives-output value="NUL"/>
        <write-trips value="true"/>
    </output>

    <processing>
        <remove-loops value="true"/>
    </processing>

    <time>
        <begin value="0"/>
        <end value="3600"/>
    </time>

    <report>
        <no-warnings value="true"/>
        <ignore-errors value="true"/>
        <no-step-log value="true"/>
    </report>

</configuration>
-->

<routes xmlns:xsi="http://www.w3.org/2001/XMLSchema-instance" xsi:noNamespaceSchemaLocation="http://sumo.dlr.de/xsd/routes_file.xsd">
    <vType id="motorcycle_motorcycle" vClass="motorcycle"/>
    <trip id="motorcycle0" type="motorcycle_motorcycle" depart="0.00" departLane="best" from="-23439923" to="-135078199#0"/>
    <trip id="motorcycle1" type="motorcycle_motorcycle" depart="1.44" departLane="best" departSpeed="max" from="44459774#0" to="23059677"/>
    <trip id="motorcycle2" type="motorcycle_motorcycle" depart="2.87" departLane="best" from="345736599" to="-10698330#1"/>
    <trip id="motorcycle3" type="motorcycle_motorcycle" depart="4.31" departLane="best" from="180667073" to="881678625#3"/>
    <trip id="motorcycle4" type="motorcycle_motorcycle" depart="5.74" departLane="best" from="45524884#6" to="23059671#3"/>
    <trip id="motorcycle5" type="motorcycle_motorcycle" depart="7.18" departLane="best" departSpeed="max" from="-26249186#1" to="-36905364#0"/>
    <trip id="motorcycle6" type="motorcycle_motorcycle" depart="8.61" departLane="best" from="436153519" to="25973410#12"/>
    <trip id="motorcycle7" type="motorcycle_motorcycle" depart="10.05" departLane="best" from="-29214740#0" to="-23528209#4"/>
    <trip id="motorcycle8" type="motorcycle_motorcycle" depart="11.48" departLane="best" from="-412792788#0" to="-31133708#1"/>
    <trip id="motorcycle9" type="motorcycle_motorcycle" depart="12.92" departLane="best" from="-33564817#1" to="23528207#2"/>
    <trip id="motorcycle10" type="motorcycle_motorcycle" depart="14.35" departLane="best" from="23032786#0" to="167641322#3"/>
    <trip id="motorcycle11" type="motorcycle_motorcycle" depart="15.79" departLane="best" from="-202421489#1" to="29214870#0"/>
    <trip id="motorcycle12" type="motorcycle_motorcycle" depart="17.22" departLane="best" from="282513344#3" to="-23320404#3"/>
    <trip id="motorcycle13" type="motorcycle_motorcycle" depart="18.66" departLane="best" from="-109592901" to="23032846"/>
    <trip id="motorcycle14" type="motorcycle_motorcycle" depart="20.09" departLane="best" from="29214246" to="42229178"/>
    <trip id="motorcycle15" type="motorcycle_motorcycle" depart="21.53" departLane="best" from="8026679#3" to="-185953704#5"/>
    <trip id="motorcycle16" type="motorcycle_motorcycle" depart="22.96" departLane="best" from="-263265818#2" to="26614511#0"/>
    <trip id="motorcycle17" type="motorcycle_motorcycle" depart="24.40" departLane="best" from="-25901262#0" to="23320536"/>
    <trip id="motorcycle18" type="motorcycle_motorcycle" depart="25.83" departLane="best" from="24509652#2" to="-115626706"/>
    <trip id="motorcycle19" type="motorcycle_motorcycle" depart="27.27" departLane="best" from="273169659" to="-53564619#1"/>
    <trip id="motorcycle20" type="motorcycle_motorcycle" depart="28.70" departLane="best" from="-925049210" to="-909754031#0"/>
    <trip id="motorcycle21" type="motorcycle_motorcycle" depart="30.14" departLane="best" from="694012900#1" to="-9514888#2"/>
    <trip id="motorcycle22" type="motorcycle_motorcycle" depart="31.57" departLane="best" from="-23471018#0" to="-378237359#6"/>
    <trip id="motorcycle23" type="motorcycle_motorcycle" depart="33.01" departLane="best" from="-183419042#9" to="281956703"/>
    <trip id="motorcycle24" type="motorcycle_motorcycle" depart="34.44" departLane="best" from="-17281416" to="231875715#0"/>
    <trip id="motorcycle25" type="motorcycle_motorcycle" depart="35.88" departLane="best" departSpeed="max" from="-58761534" to="23184036#3"/>
    <trip id="motorcycle26" type="motorcycle_motorcycle" depart="37.31" departLane="best" from="9515416#3" to="-9514888#6"/>
    <trip id="motorcycle27" type="motorcycle_motorcycle" depart="38.75" departLane="best" from="29214315#0" to="-560583337"/>
    <trip id="motorcycle28" type="motorcycle_motorcycle" depart="40.18" departLane="best" from="30010176#1" to="23313215#2"/>
    <trip id="motorcycle29" type="motorcycle_motorcycle" depart="41.62" departLane="best" from="25935609#3" to="25901275#1"/>
    <trip id="motorcycle30" type="motorcycle_motorcycle" depart="43.05" departLane="best" from="-691310302" to="-109592896#1"/>
    <trip id="motorcycle31" type="motorcycle_motorcycle" depart="44.49" departLane="best" from="-366030054#0" to="4807744#1"/>
    <trip id="motorcycle32" type="motorcycle_motorcycle" depart="45.92" departLane="best" from="317594345#16" to="-400416445#0"/>
    <trip id="motorcycle33" type="motorcycle_motorcycle" depart="47.36" departLane="best" from="-273169647#1" to="-23163758"/>
    <trip id="motorcycle34" type="motorcycle_motorcycle" depart="48.79" departLane="best" departSpeed="max" from="-128115937#3" to="27246640"/>
    <trip id="motorcycle35" type="motorcycle_motorcycle" depart="50.23" departLane="best" departSpeed="max" from="32808672" to="403701944"/>
    <trip id="motorcycle36" type="motorcycle_motorcycle" depart="51.66" departLane="best" from="-125094680#1" to="25531541#1"/>
    <trip id="motorcycle37" type="motorcycle_motorcycle" depart="53.10" departLane="best" from="-787951055" to="-33565500"/>
    <trip id="motorcycle38" type="motorcycle_motorcycle" depart="54.53" departLane="best" from="-881678625#6" to="26249172#0"/>
    <trip id="motorcycle39" type="motorcycle_motorcycle" depart="55.97" departLane="best" from="378237367" to="23032792#4"/>
    <trip id="motorcycle40" type="motorcycle_motorcycle" depart="57.40" departLane="best" from="23316365" to="-32297993#0"/>
    <trip id="motorcycle41" type="motorcycle_motorcycle" depart="58.84" departLane="best" from="183049933#0" to="23439923"/>
    <trip id="motorcycle42" type="motorcycle_motorcycle" depart="60.27" departLane="best" from="189364993#0" to="23312969#3"/>
    <trip id="motorcycle43" type="motorcycle_motorcycle" depart="61.71" departLane="best" from="-169127796#0" to="-537356312#0"/>
    <trip id="motorcycle44" type="motorcycle_motorcycle" depart="63.14" departLane="best" from="280128590" to="-537356312#0"/>
    <trip id="motorcycle45" type="motorcycle_motorcycle" depart="64.58" departLane="best" departSpeed="max" from="-787900922#1" to="-26733892#2"/>
    <trip id="motorcycle46" type="motorcycle_motorcycle" depart="66.01" departLane="best" from="-23032776#0" to="265461445#0"/>
    <trip id="motorcycle47" type="motorcycle_motorcycle" depart="67.45" departLane="best" from="247063363#0" to="23528284#15"/>
    <trip id="motorcycle48" type="motorcycle_motorcycle" depart="68.88" departLane="best" departSpeed="max" from="130569448#0" to="331752492#1"/>
    <trip id="motorcycle49" type="motorcycle_motorcycle" depart="70.32" departLane="best" from="23093188#1" to="156261081#6"/>
    <trip id="motorcycle50" type="motorcycle_motorcycle" depart="71.75" departLane="best" from="-17281400#0" to="-926867318"/>
    <trip id="motorcycle51" type="motorcycle_motorcycle" depart="73.19" departLane="best" from="-881678626#4" to="202499352#0"/>
    <trip id="motorcycle52" type="motorcycle_motorcycle" depart="74.63" departLane="best" from="400416444" to="168355066#2"/>
    <trip id="motorcycle53" type="motorcycle_motorcycle" depart="76.06" departLane="best" from="4066943#6" to="23163771#1"/>
    <trip id="motorcycle54" type="motorcycle_motorcycle" depart="77.50" departLane="best" from="562273438" to="159698915#0"/>
    <trip id="motorcycle55" type="motorcycle_motorcycle" depart="78.93" departLane="best" from="37181832#1" to="-696225646#3"/>
    <trip id="motorcycle56" type="motorcycle_motorcycle" depart="80.37" departLane="best" from="281962648#4" to="23320399"/>
    <trip id="motorcycle57" type="motorcycle_motorcycle" depart="81.80" departLane="best" from="25708729#1" to="-25973411"/>
    <trip id="motorcycle58" type="motorcycle_motorcycle" depart="83.24" departLane="best" from="23528209#5" to="-23528207#8"/>
    <trip id="motorcycle59" type="motorcycle_motorcycle" depart="84.67" departLane="best" from="23528216#2" to="560583353#2"/>
    <trip id="motorcycle60" type="motorcycle_motorcycle" depart="86.11" departLane="best" from="655748691#1" to="987716141"/>
    <trip id="motorcycle61" type="motorcycle_motorcycle" depart="87.54" departLane="best" from="-16361899#7" to="29139497#2"/>
    <trip id="motorcycle62" type="motorcycle_motorcycle" depart="88.98" departLane="best" from="133487398#1" to="-23094750#1"/>
    <trip id="motorcycle63" type="motorcycle_motorcycle" depart="90.41" departLane="best" from="-387155261" to="-258841359#1"/>
    <trip id="motorcycle64" type="motorcycle_motorcycle" depart="91.85" departLane="best" from="350217704#4" to="23032847#0"/>
    <trip id="motorcycle65" type="motorcycle_motorcycle" depart="93.28" departLane="best" from="-24436948" to="4807746#1"/>
    <trip id="motorcycle66" type="motorcycle_motorcycle" depart="94.72" departLane="best" from="-281905166" to="538358998#1"/>
    <trip id="motorcycle67" type="motorcycle_motorcycle" depart="96.15" departLane="best" from="38020353#1" to="17076383#0"/>
    <trip id="motorcycle68" type="motorcycle_motorcycle" depart="97.59" departLane="best" from="42229171" to="403701944"/>
    <trip id="motorcycle69" type="motorcycle_motorcycle" depart="99.02" departLane="best" from="-124929507#1" to="-23471075"/>
    <trip id="motorcycle70" type="motorcycle_motorcycle" depart="100.46" departLane="best" from="926867311#1" to="393019010#1"/>
    <trip id="motorcycle71" type="motorcycle_motorcycle" depart="101.89" departLane="best" from="900882212" to="169127821#3"/>
    <trip id="motorcycle72" type="motorcycle_motorcycle" depart="103.33" departLane="best" from="25973410#2" to="-8026679#4"/>
    <trip id="motorcycle73" type="motorcycle_motorcycle" depart="104.76" departLane="best" from="387401266" to="399038515#1"/>
    <trip id="motorcycle74" type="motorcycle_motorcycle" depart="106.20" departLane="best" from="25935620" to="29214783"/>
    <trip id="motorcycle75" type="motorcycle_motorcycle" depart="107.63" departLane="best" from="4066943#3" to="-161235141#1"/>
    <trip id="motorcycle76" type="motorcycle_motorcycle" depart="109.07" departLane="best" from="-5051407#2" to="-9515059#2"/>
    <trip id="motorcycle77" type="motorcycle_motorcycle" depart="110.50" departLane="best" from="23320720#4" to="-219110057#5"/>
    <trip id="motorcycle78" type="motorcycle_motorcycle" depart="111.94" departLane="best" from="23320593#4" to="130569446"/>
    <trip id="motorcycle80" type="motorcycle_motorcycle" depart="114.81" departLane="best" from="138203612#2" to="4807774#1"/>
    <trip id="motorcycle81" type="motorcycle_motorcycle" depart="116.24" departLane="best" from="231875724#12" to="-448974990"/>
    <trip id="motorcycle82" type="motorcycle_motorcycle" depart="117.68" departLane="best" from="-23528207#7" to="387155267"/>
    <trip id="motorcycle83" type="motorcycle_motorcycle" depart="119.11" departLane="best" from="-86704644" to="23184009#2"/>
    <trip id="motorcycle84" type="motorcycle_motorcycle" depart="120.55" departLane="best" from="-23528344#2" to="-23320502"/>
    <trip id="motorcycle85" type="motorcycle_motorcycle" depart="121.98" departLane="best" from="182058677" to="8576730#3"/>
    <trip id="motorcycle86" type="motorcycle_motorcycle" depart="123.42" departLane="best" from="-169096483#0" to="482540454"/>
    <trip id="motorcycle87" type="motorcycle_motorcycle" depart="124.85" departLane="best" from="37181838#1" to="16361899#3"/>
    <trip id="motorcycle88" type="motorcycle_motorcycle" depart="126.29" departLane="best" from="-260983469#0" to="903117233#1"/>
    <trip id="motorcycle89" type="motorcycle_motorcycle" depart="127.72" departLane="best" from="-37181837#1" to="4811327#0"/>
    <trip id="motorcycle90" type="motorcycle_motorcycle" depart="129.16" departLane="best" from="-23094756#0" to="448036757#2"/>
    <trip id="motorcycle91" type="motorcycle_motorcycle" depart="130.59" departLane="best" from="23313215#5" to="12098782#1"/>
    <trip id="motorcycle92" type="motorcycle_motorcycle" depart="132.03" departLane="best" from="-387212695#0" to="-12098881#0"/>
    <trip id="motorcycle93" type="motorcycle_motorcycle" depart="133.46" departLane="best" from="-23528238#0" to="23528216#0"/>
    <trip id="motorcycle94" type="motorcycle_motorcycle" depart="134.90" departLane="best" from="-400416445#7" to="-400416445#2"/>
    <trip id="motorcycle95" type="motorcycle_motorcycle" depart="136.33" departLane="best" departSpeed="max" from="-23320645" to="-23320434#1"/>
    <trip id="motorcycle96" type="motorcycle_motorcycle" depart="137.77" departLane="best" from="273990571#2" to="-24302935"/>
    <trip id="motorcycle97" type="motorcycle_motorcycle" depart="139.20" departLane="best" from="4807761" to="-22910596#0"/>
    <trip id="motorcycle98" type="motorcycle_motorcycle" depart="140.64" departLane="best" from="51776156#0" to="-202555475#9"/>
    <trip id="motorcycle99" type="motorcycle_motorcycle" depart="142.07" departLane="best" from="23119545" to="23111554#1"/>
    <trip id="motorcycle100" type="motorcycle_motorcycle" depart="143.51" departLane="best" from="-25973409#0" to="-8038822"/>
    <trip id="motorcycle101" type="motorcycle_motorcycle" depart="144.94" departLane="best" from="366030055#1" to="23320636#1"/>
    <trip id="motorcycle102" type="motorcycle_motorcycle" depart="146.38" departLane="best" from="22955420#4" to="172404481#1"/>
    <trip id="motorcycle103" type="motorcycle_motorcycle" depart="147.82" departLane="best" from="242930052" to="167641329"/>
    <trip id="motorcycle104" type="motorcycle_motorcycle" depart="149.25" departLane="best" from="51776156#0" to="387296017#0"/>
    <trip id="motorcycle105" type="motorcycle_motorcycle" depart="150.69" departLane="best" from="-23528207#6" to="386832701#1"/>
    <trip id="motorcycle106" type="motorcycle_motorcycle" depart="152.12" departLane="best" from="23471128#2" to="24508745#0"/>
    <trip id="motorcycle107" type="motorcycle_motorcycle" depart="153.56" departLane="best" from="-22793816" to="4066943#0"/>
    <trip id="motorcycle108" type="motorcycle_motorcycle" depart="154.99" departLane="best" from="387498732" to="23320720#10"/>
    <trip id="motorcycle109" type="motorcycle_motorcycle" depart="156.43" departLane="best" departSpeed="max" from="-387296022#1" to="23184033#0"/>
    <trip id="motorcycle110" type="motorcycle_motorcycle" depart="157.86" departLane="best" from="350217704#2" to="24608272#0"/>
    <trip id="motorcycle111" type="motorcycle_motorcycle" depart="159.30" departLane="best" from="22793821#1" to="-387401262#2"/>
    <trip id="motorcycle112" type="motorcycle_motorcycle" depart="160.73" departLane="best" from="283020993#1" to="-23320456#3"/>
    <trip id="motorcycle114" type="motorcycle_motorcycle" depart="163.60" departLane="best" from="-8026679#1" to="-8026683#8"/>
    <trip id="motorcycle115" type="motorcycle_motorcycle" depart="165.04" departLane="best" departSpeed="max" from="323107046" to="-23439929#0"/>
    <trip id="motorcycle116" type="motorcycle_motorcycle" depart="166.47" departLane="best" from="-25973410#11" to="1164287131#0"/>
    <trip id="motorcycle117" type="motorcycle_motorcycle" depart="167.91" departLane="best" from="23320404#7" to="25973412#1"/>
    <trip id="motorcycle118" type="motorcycle_motorcycle" depart="169.34" departLane="best" from="-9054580#0" to="10417275#0"/>
    <trip id="motorcycle119" type="motorcycle_motorcycle" depart="170.78" departLane="best" from="383945640" to="23032829#1"/>
    <trip id="motorcycle120" type="motorcycle_motorcycle" depart="172.21" departLane="best" from="-94166194#1" to="23184020#1"/>
    <trip id="motorcycle121" type="motorcycle_motorcycle" depart="173.65" departLane="best" from="117527770#2" to="183419042#6"/>
    <trip id="motorcycle122" type="motorcycle_motorcycle" depart="175.08" departLane="best" from="8576730#3" to="169224407#0"/>
    <trip id="motorcycle123" type="motorcycle_motorcycle" depart="176.52" departLane="best" from="146908199#2" to="53564624#1"/>
    <trip id="motorcycle124" type="motorcycle_motorcycle" depart="177.95" departLane="best" from="-23184009#2" to="378237362#4"/>
    <trip id="motorcycle125" type="motorcycle_motorcycle" depart="179.39" departLane="best" from="-686102164#0" to="25708882#5"/>
    <trip id="motorcycle126" type="motorcycle_motorcycle" depart="180.82" departLane="best" from="-400416445#4" to="167641328"/>
    <trip id="motorcycle127" type="motorcycle_motorcycle" depart="182.26" departLane="best" from="9515416#1" to="-32297993#0"/>
    <trip id="motorcycle128" type="motorcycle_motorcycle" depart="183.69" departLane="best" from="-42326225#0" to="346002978"/>
    <trip id="motorcycle129" type="motorcycle_motorcycle" depart="185.13" departLane="best" from="243216815" to="692610317#1"/>
    <trip id="motorcycle130" type="motorcycle_motorcycle" depart="186.56" departLane="best" from="-23320593#2" to="-23320404#2"/>
    <trip id="motorcycle131" type="motorcycle_motorcycle" depart="188.00" departLane="best" from="23032829#2" to="211686719"/>
    <trip id="motorcycle132" type="motorcycle_motorcycle" depart="189.43" departLane="best" from="448974997#1" to="-1088871993#1"/>
    <trip id="motorcycle133" type="motorcycle_motorcycle" depart="190.87" departLane="best" from="387401257" to="26249173#4"/>
    <trip id="motorcycle134" type="motorcycle_motorcycle" depart="192.30" departLane="best" from="31626942" to="178668745"/>
    <trip id="motorcycle135" type="motorcycle_motorcycle" depart="193.74" departLane="best" from="-135078199#7" to="23059834#1"/>
    <trip id="motorcycle136" type="motorcycle_motorcycle" depart="195.17" departLane="best" from="17097227" to="-23312971#1"/>
    <trip id="motorcycle137" type="motorcycle_motorcycle" depart="196.61" departLane="best" from="202499353#0" to="-23313215#1"/>
    <trip id="motorcycle138" type="motorcycle_motorcycle" depart="198.04" departLane="best" departSpeed="max" from="23184034" to="387296022#1"/>
    <trip id="motorcycle139" type="motorcycle_motorcycle" depart="199.48" departLane="best" from="22910608#4" to="38361911#0"/>
    <trip id="motorcycle140" type="motorcycle_motorcycle" depart="200.91" departLane="best" from="23471077" to="30010699#0"/>
    <trip id="motorcycle141" type="motorcycle_motorcycle" depart="202.35" departLane="best" from="146908203#2" to="23471026#2"/>
    <trip id="motorcycle142" type="motorcycle_motorcycle" depart="203.78" departLane="best" from="-24508745#1" to="-378237362#3"/>
    <trip id="motorcycle143" type="motorcycle_motorcycle" depart="205.22" departLane="best" departSpeed="max" from="-208865182" to="-184749081#3"/>
    <trip id="motorcycle144" type="motorcycle_motorcycle" depart="206.65" departLane="best" from="-25531541#2" to="-23320401#1"/>
    <trip id="motorcycle145" type="motorcycle_motorcycle" depart="208.09" departLane="best" from="438289427#1" to="23111554#1"/>
    <trip id="motorcycle146" type="motorcycle_motorcycle" depart="209.52" departLane="best" from="-474485750#0" to="-23320720#5"/>
    <trip id="motorcycle147" type="motorcycle_motorcycle" depart="210.96" departLane="best" from="-59054089#2" to="173309328#0"/>
    <trip id="motorcycle148" type="motorcycle_motorcycle" depart="212.39" departLane="best" from="787951054" to="-26249189"/>
    <trip id="motorcycle149" type="motorcycle_motorcycle" depart="213.83" departLane="best" from="158355467#10" to="29701032#9"/>
    <trip id="motorcycle150" type="motorcycle_motorcycle" depart="215.26" departLane="best" from="23320404#5" to="23439929#0"/>
    <trip id="motorcycle151" type="motorcycle_motorcycle" depart="216.70" departLane="best" from="-23439978#5" to="25752783#1"/>
    <trip id="motorcycle152" type="motorcycle_motorcycle" depart="218.13" departLane="best" from="5047080#3" to="42229184#0"/>
    <trip id="motorcycle153" type="motorcycle_motorcycle" depart="219.57" departLane="best" from="23320404#2" to="25973386#2"/>
    <trip id="motorcycle154" type="motorcycle_motorcycle" depart="221.01" departLane="best" from="-29214401" to="265491171"/>
    <trip id="motorcycle155" type="motorcycle_motorcycle" depart="222.44" departLane="best" from="-260983469#4" to="881678625#1"/>
    <trip id="motorcycle156" type="motorcycle_motorcycle" depart="223.88" departLane="best" from="169224407#3" to="881678625#3"/>
    <trip id="motorcycle157" type="motorcycle_motorcycle" depart="225.31" departLane="best" from="-4807751#2" to="23093009"/>
    <trip id="motorcycle158" type="motorcycle_motorcycle" depart="226.75" departLane="best" from="488705428#0" to="9515059#0"/>
    <trip id="motorcycle159" type="motorcycle_motorcycle" depart="228.18" departLane="best" from="283020993#0" to="273990571#0"/>
    <trip id="motorcycle160" type="motorcycle_motorcycle" depart="229.62" departLane="best" from="-23312960#0" to="-23471128#2"/>
    <trip id="motorcycle161" type="motorcycle_motorcycle" depart="231.05" departLane="best" from="-34424783#0" to="-788313637"/>
    <trip id="motorcycle162" type="motorcycle_motorcycle" depart="232.49" departLane="best" from="-23032884#1" to="-180784453"/>
    <trip id="motorcycle164" type="motorcycle_motorcycle" depart="235.36" departLane="best" from="345736600" to="-9054582#1"/>
    <trip id="motorcycle165" type="motorcycle_motorcycle" depart="236.79" departLane="best" from="53564621#1" to="-273169647#0"/>
    <trip id="motorcycle166" type="motorcycle_motorcycle" depart="238.23" departLane="best" from="-25935601#0" to="-403685569#0"/>
    <trip id="motorcycle167" type="motorcycle_motorcycle" depart="239.66" departLane="best" from="23163776" to="24994574#1"/>
    <trip id="motorcycle168" type="motorcycle_motorcycle" depart="241.10" departLane="best" from="-26684342#1" to="25901275#0"/>
    <trip id="motorcycle169" type="motorcycle_motorcycle" depart="242.53" departLane="best" from="23184012" to="42326224#1"/>
    <trip id="motorcycle170" type="motorcycle_motorcycle" depart="243.97" departLane="best" from="-387296017#0" to="696225646#3"/>
    <trip id="motorcycle171" type="motorcycle_motorcycle" depart="245.40" departLane="best" from="-202555475#10" to="-31133704#3"/>
    <trip id="motorcycle172" type="motorcycle_motorcycle" depart="246.84" departLane="best" from="-23092999#2" to="-903593363"/>
    <trip id="motorcycle173" type="motorcycle_motorcycle" depart="248.27" departLane="best" departSpeed="max" from="149495339#0" to="-23724225"/>
    <trip id="motorcycle174" type="motorcycle_motorcycle" depart="249.71" departLane="best" from="37177744#2" to="-8026679#3"/>
    <trip id="motorcycle175" type="motorcycle_motorcycle" depart="251.14" departLane="best" from="23528207#7" to="-33565500"/>
    <trip id="motorcycle176" type="motorcycle_motorcycle" depart="252.58" departLane="best" from="-560583354" to="387296022#1"/>
    <trip id="motorcycle177" type="motorcycle_motorcycle" depart="254.01" departLane="best" from="24447752" to="387498732"/>
    <trip id="motorcycle178" type="motorcycle_motorcycle" depart="255.45" departLane="best" from="-22946801#2" to="-399038513#3"/>
    <trip id="motorcycle179" type="motorcycle_motorcycle" depart="256.88" departLane="best" from="-399038515#7" to="448974986"/>
    <trip id="motorcycle180" type="motorcycle_motorcycle" depart="258.32" departLane="best" from="-4807778#2" to="474485730#1"/>
    <trip id="motorcycle181" type="motorcycle_motorcycle" depart="259.75" departLane="best" from="-366030054#0" to="-474485741#0"/>
    <trip id="motorcycle182" type="motorcycle_motorcycle" depart="261.19" departLane="best" from="-205275738#1" to="-788313637"/>
    <trip id="motorcycle183" type="motorcycle_motorcycle" depart="262.62" departLane="best" from="385405407#0" to="-553323249#1"/>
    <trip id="motorcycle184" type="motorcycle_motorcycle" depart="264.06" departLane="best" from="613396235" to="-40817206#1"/>
    <trip id="motorcycle185" type="motorcycle_motorcycle" depart="265.49" departLane="best" from="-686955221" to="133487398#1"/>
    <trip id="motorcycle186" type="motorcycle_motorcycle" depart="266.93" departLane="best" from="23320593#1" to="-281956698#0"/>
    <trip id="motorcycle187" type="motorcycle_motorcycle" depart="268.36" departLane="best" from="378237359#4" to="383983719"/>
    <trip id="motorcycle188" type="motorcycle_motorcycle" depart="269.80" departLane="best" from="387296014#1" to="23528344#0"/>
    <trip id="motorcycle189" type="motorcycle_motorcycle" depart="271.23" departLane="best" from="25531363#0" to="-25935610#0"/>
    <trip id="motorcycle190" type="motorcycle_motorcycle" depart="272.67" departLane="best" from="-27246640" to="-366030054#3"/>
    <trip id="motorcycle191" type="motorcycle_motorcycle" depart="274.10" departLane="best" from="403701944" to="-25213867#2"/>
    <trip id="motorcycle192" type="motorcycle_motorcycle" depart="275.54" departLane="best" from="-332195429#2" to="-23320661#1"/>
    <trip id="motorcycle193" type="motorcycle_motorcycle" depart="276.97" departLane="best" departSpeed="max" from="-23184009#4" to="-386831074"/>
    <trip id="motorcycle194" type="motorcycle_motorcycle" depart="278.41" departLane="best" from="-990451065" to="23093002"/>
    <trip id="motorcycle195" type="motorcycle_motorcycle" depart="279.84" departLane="best" from="35897001" to="787900922#1"/>
    <trip id="motorcycle196" type="motorcycle_motorcycle" depart="281.28" departLane="best" from="-23528207#7" to="12099346#5"/>
    <trip id="motorcycle197" type="motorcycle_motorcycle" depart="282.71" departLane="best" from="243216815" to="-23138541#1"/>
    <trip id="motorcycle198" type="motorcycle_motorcycle" depart="284.15" departLane="best" from="4811517" to="926867324"/>
    <trip id="motorcycle199" type="motorcycle_motorcycle" depart="285.58" departLane="best" from="280128594#2" to="25213867#6"/>
    <trip id="motorcycle200" type="motorcycle_motorcycle" depart="287.02" departLane="best" from="124051723#3" to="-23163787#1"/>
    <trip id="motorcycle201" type="motorcycle_motorcycle" depart="288.45" departLane="best" from="54883366#4" to="5051407#3"/>
    <trip id="motorcycle202" type="motorcycle_motorcycle" depart="289.89" departLane="best" from="653561652" to="-399038515#6"/>
    <trip id="motorcycle203" type="motorcycle_motorcycle" depart="291.32" departLane="best" from="27531049#6" to="-25497534#2"/>
    <trip id="motorcycle204" type="motorcycle_motorcycle" depart="292.76" departLane="best" from="-881678625#0" to="-10230452#2"/>
    <trip id="motorcycle205" type="motorcycle_motorcycle" depart="294.20" departLane="best" from="266053738#0" to="-23724230#1"/>
    <trip id="motorcycle206" type="motorcycle_motorcycle" depart="295.63" departLane="best" from="25497562#0" to="10230452#5"/>
    <trip id="motorcycle207" type="motorcycle_motorcycle" depart="297.07" departLane="best" from="-60430429#0" to="-23320502"/>
    <trip id="motorcycle208" type="motorcycle_motorcycle" depart="298.50" departLane="best" from="-37181834#0" to="43323361#3"/>
    <trip id="motorcycle209" type="motorcycle_motorcycle" depart="299.94" departLane="best" from="23439978#3" to="-8038822"/>
    <trip id="motorcycle210" type="motorcycle_motorcycle" depart="301.37" departLane="best" from="-474485745#2" to="785383463#3"/>
    <trip id="motorcycle211" type="motorcycle_motorcycle" depart="302.81" departLane="best" from="-37181837#4" to="23439978#0"/>
    <trip id="motorcycle212" type="motorcycle_motorcycle" depart="304.24" departLane="best" from="30998710#0" to="23032847#0"/>
    <trip id="motorcycle213" type="motorcycle_motorcycle" depart="305.68" departLane="best" from="202555475#9" to="23312958#0"/>
    <trip id="motorcycle214" type="motorcycle_motorcycle" depart="307.11" departLane="best" from="23528207#2" to="385405402"/>
    <trip id="motorcycle215" type="motorcycle_motorcycle" depart="308.55" departLane="best" from="168355067" to="180667072#1"/>
    <trip id="motorcycle216" type="motorcycle_motorcycle" depart="309.98" departLane="best" from="17088718#1" to="474485745#1"/>
    <trip id="motorcycle217" type="motorcycle_motorcycle" depart="311.42" departLane="best" from="88457772#2" to="911891303#2"/>
    <trip id="motorcycle218" type="motorcycle_motorcycle" depart="312.85" departLane="best" from="281956702#0" to="694012899#0"/>
    <trip id="motorcycle219" type="motorcycle_motorcycle" depart="314.29" departLane="best" from="29138345" to="12098782#1"/>