<?xml version="1.0" encoding="UTF-8"?>

<!-- generated on 2023-05-18 14:38:46.732398 by osmWebWizard.py v1_16_0+0000-94ec4c6cd72
<configuration>
    <additional-files value="C:\Users\sader\Sumo\2023-05-18-14-37-49\osm_stops.add.xml,C:\Users\sader\Sumo\2023-05-18-14-37-49\osm_pt.rou.xml"/>
    <begin value="0"/>
    <end value="3600"/>
    <fringe-factor value="1"/>
    <insertion-density value="10.0"/>
    <net-file value="C:\Users\sader\Sumo\2023-05-18-14-37-49\osm.net.xml.gz"/>
    <persontrips value="True"/>
    <route-file value="C:\Users\sader\Sumo\2023-05-18-14-37-49\osm.pedestrian.rou.xml"/>
    <trip-attributes value="modes=&quot;public&quot;"/>
    <output-trip-file value="C:\Users\sader\Sumo\2023-05-18-14-37-49\osm.pedestrian.trips.xml"/>
    <prefix value="ped"/>
    <vehicle-class value="pedestrian"/>
    <persontrip.walk-opposite-factor value="0.8"/>
</configuration>
-->

<routes xmlns:xsi="http://www.w3.org/2001/XMLSchema-instance" xsi:noNamespaceSchemaLocation="http://sumo.dlr.de/xsd/routes_file.xsd">
    <vType id="ped_pedestrian" vClass="pedestrian"/>
    <person id="ped0" depart="0.00" type="ped_pedestrian">
        <personTrip from="280124335#1" to="-125393298#5" modes="public"/>
    </person>
    <person id="ped1" depart="0.52" type="ped_pedestrian">
        <personTrip from="-57391467" to="-38550860#1" modes="public"/>
    </person>
    <person id="ped2" depart="1.03" type="ped_pedestrian">
        <personTrip from="33002522" to="30760065#2" modes="public"/>
    </person>
    <person id="ped3" depart="1.55" type="ped_pedestrian">
        <personTrip from="607153614" to="-23093188#0" modes="public"/>
    </person>
    <person id="ped4" depart="2.06" type="ped_pedestrian">
        <personTrip from="156195256" to="-133527470" modes="public"/>
    </person>
    <person id="ped5" depart="2.58" type="ped_pedestrian">
        <personTrip from="-38360675#1" to="222756304#0" modes="public"/>
    </person>
    <person id="ped6" depart="3.10" type="ped_pedestrian">
        <personTrip from="-127314424#4" to="-341243968" modes="public"/>
    </person>
    <person id="ped7" depart="3.61" type="ped_pedestrian">
        <personTrip from="284873977#0" to="23275106" modes="public"/>
    </person>
    <person id="ped8" depart="4.13" type="ped_pedestrian">
        <personTrip from="-38501726#0" to="255429271" modes="public"/>
    </person>
    <person id="ped9" depart="4.64" type="ped_pedestrian">
        <personTrip from="404783339#1" to="-1086199880#3" modes="public"/>
    </person>
    <person id="ped10" depart="5.16" type="ped_pedestrian">
        <personTrip from="401262914" to="317594345#24" modes="public"/>
    </person>
    <person id="ped11" depart="5.68" type="ped_pedestrian">
        <personTrip from="108793843#1" to="-26520944#0" modes="public"/>
    </person>
    <person id="ped12" depart="6.19" type="ped_pedestrian">
        <personTrip from="89891461#0" to="105914659#1" modes="public"/>
    </person>
    <person id="ped13" depart="6.71" type="ped_pedestrian">
        <personTrip from="-23147579" to="-23163769#1" modes="public"/>
    </person>
    <person id="ped14" depart="7.22" type="ped_pedestrian">
        <personTrip from="449556338" to="25901344#1" modes="public"/>
    </person>
    <person id="ped15" depart="7.74" type="ped_pedestrian">
        <personTrip from="401262927#1" to="321218956#0" modes="public"/>
    </person>
    <person id="ped16" depart="8.26" type="ped_pedestrian">
        <personTrip from="23184024#4" to="92136215#2" modes="public"/>
    </person>
    <person id="ped17" depart="8.77" type="ped_pedestrian">
        <personTrip from="1169079448" to="23320406#1" modes="public"/>
    </person>
    <person id="ped18" depart="9.29" type="ped_pedestrian">
        <personTrip from="43323361#1" to="266652811" modes="public"/>
    </person>
    <person id="ped19" depart="9.80" type="ped_pedestrian">
        <personTrip from="4807778#5" to="24620747#0" modes="public"/>
    </person>
    <person id="ped20" depart="10.32" type="ped_pedestrian">
        <personTrip from="317594488" to="-168357260" modes="public"/>
    </person>
    <person id="ped21" depart="10.84" type="ped_pedestrian">
        <personTrip from="-387498727#0" to="-694116161" modes="public"/>
    </person>
    <person id="ped22" depart="11.35" type="ped_pedestrian">
        <personTrip from="-22793560#2" to="-399038515#3" modes="public"/>
    </person>
    <person id="ped23" depart="11.87" type="ped_pedestrian">
        <personTrip from="-231875724#7" to="-591252083#0" modes="public"/>
    </person>
    <person id="ped24" depart="12.38" type="ped_pedestrian">
        <personTrip from="274191615#1" to="1161796956" modes="public"/>
    </person>
    <person id="ped25" depart="12.90" type="ped_pedestrian">
        <personTrip from="116448777#4" to="-37432224#4" modes="public"/>
    </person>
    <person id="ped26" depart="13.42" type="ped_pedestrian">
        <personTrip from="-537710741#3" to="772978306" modes="public"/>
    </person>
    <person id="ped27" depart="13.93" type="ped_pedestrian">
        <personTrip from="283020988#1" to="261543551#5" modes="public"/>
    </person>
    <person id="ped28" depart="14.45" type="ped_pedestrian">
        <personTrip from="-29036825#2" to="321218954#1" modes="public"/>
    </person>
    <person id="ped29" depart="14.96" type="ped_pedestrian">
        <personTrip from="-27324104" to="1169441398" modes="public"/>
    </person>
    <person id="ped30" depart="15.48" type="ped_pedestrian">
        <personTrip from="957455061" to="281962648#3" modes="public"/>
    </person>
    <person id="ped31" depart="16.00" type="ped_pedestrian">
        <personTrip from="23442294#4" to="314597890" modes="public"/>
    </person>
    <person id="ped32" depart="16.51" type="ped_pedestrian">
        <personTrip from="449554142#13" to="379556141" modes="public"/>
    </person>
    <person id="ped33" depart="17.03" type="ped_pedestrian">
        <personTrip from="-387498735#0" to="-148844981" modes="public"/>
    </person>
    <person id="ped34" depart="17.54" type="ped_pedestrian">
        <personTrip from="-91703914#0" to="-538358998#1" modes="public"/>
    </person>
    <person id="ped35" depart="18.06" type="ped_pedestrian">
        <personTrip from="-37721065#1" to="8080009" modes="public"/>
    </person>
    <person id="ped36" depart="18.57" type="ped_pedestrian">
        <personTrip from="54883017#0" to="-91382716#1" modes="public"/>
    </person>
    <person id="ped37" depart="19.09" type="ped_pedestrian">
        <personTrip from="290608285#0" to="125223103#0" modes="public"/>
    </person>
    <person id="ped38" depart="19.61" type="ped_pedestrian">
        <personTrip from="694075463#0" to="185494496" modes="public"/>
    </person>
    <person id="ped39" depart="20.12" type="ped_pedestrian">
        <personTrip from="-53564618" to="-438289427#1" modes="public"/>
    </person>
    <person id="ped40" depart="20.64" type="ped_pedestrian">
        <personTrip from="23471075" to="-53563627#2" modes="public"/>
    </person>
    <person id="ped41" depart="21.15" type="ped_pedestrian">
        <personTrip from="25114975" to="654570576#1" modes="public"/>
    </person>
    <person id="ped42" depart="21.67" type="ped_pedestrian">
        <personTrip from="127314436#3" to="-38360677#5" modes="public"/>
    </person>
    <person id="ped43" depart="22.19" type="ped_pedestrian">
        <personTrip from="974776881#3" to="22946796#2" modes="public"/>
    </person>
    <person id="ped44" depart="22.70" type="ped_pedestrian">
        <personTrip from="-23111652#2" to="-169127857" modes="public"/>
    </person>
    <person id="ped45" depart="23.22" type="ped_pedestrian">
        <personTrip from="-23313215#3" to="272550558" modes="public"/>
    </person>
    <person id="ped46" depart="23.73" type="ped_pedestrian">
        <personTrip from="387401267#6" to="156196384#2" modes="public"/>
    </person>
    <person id="ped47" depart="24.25" type="ped_pedestrian">
        <personTrip from="-186031004#2" to="117546241" modes="public"/>
    </person>
    <person id="ped48" depart="24.77" type="ped_pedestrian">
        <personTrip from="968544494#0" to="23151403#3" modes="public"/>
    </person>
    <person id="ped49" depart="25.28" type="ped_pedestrian">
        <personTrip from="91382715#0" to="4807773#0" modes="public"/>
    </person>
    <person id="ped50" depart="25.80" type="ped_pedestrian">
        <personTrip from="-1138670461#1" to="31828752#0" modes="public"/>
    </person>
    <person id="ped51" depart="26.31" type="ped_pedestrian">
        <personTrip from="31133708#0" to="23184030#0" modes="public"/>
    </person>
    <person id="ped52" depart="26.83" type="ped_pedestrian">
        <personTrip from="-537710741#1" to="281967832#1" modes="public"/>
    </person>
    <person id="ped53" depart="27.35" type="ped_pedestrian">
        <personTrip from="-23320643#0" to="168353187#0" modes="public"/>
    </person>
    <person id="ped54" depart="27.86" type="ped_pedestrian">
        <personTrip from="183047036#5" to="887382264#1" modes="public"/>
    </person>
    <person id="ped55" depart="28.38" type="ped_pedestrian">
        <personTrip from="548453315#0" to="-53564083#0" modes="public"/>
    </person>
    <person id="ped56" depart="28.89" type="ped_pedestrian">
        <personTrip from="219260380#6" to="-30010691#0" modes="public"/>
    </person>
    <person id="ped57" depart="29.41" type="ped_pedestrian">
        <personTrip from="694012885" to="53564083#0" modes="public"/>
    </person>
    <person id="ped58" depart="29.93" type="ped_pedestrian">
        <personTrip from="-783691403#0" to="280102094" modes="public"/>
    </person>
    <person id="ped59" depart="30.44" type="ped_pedestrian">
        <personTrip from="261543551#3" to="-263264910#0" modes="public"/>
    </person>
    <person id="ped60" depart="30.96" type="ped_pedestrian">
        <personTrip from="36779460" to="231912407#1" modes="public"/>
    </person>
    <person id="ped61" depart="31.47" type="ped_pedestrian">
        <personTrip from="38360677#3" to="23163760" modes="public"/>
    </person>
    <person id="ped62" depart="31.99" type="ped_pedestrian">
        <personTrip from="-1020368379" to="-974776881#1" modes="public"/>
    </person>
    <person id="ped63" depart="32.51" type="ped_pedestrian">
        <personTrip from="-12099349" to="702995498" modes="public"/>
    </person>
    <person id="ped64" depart="33.02" type="ped_pedestrian">
        <personTrip from="558422638#4" to="441529519" modes="public"/>
    </person>
    <person id="ped65" depart="33.54" type="ped_pedestrian">
        <personTrip from="-9054584#13" to="-185953711#2" modes="public"/>
    </person>
    <person id="ped66" depart="34.05" type="ped_pedestrian">
        <personTrip from="553323250" to="84913183#3" modes="public"/>
    </person>
    <person id="ped67" depart="34.57" type="ped_pedestrian">
        <personTrip from="-23059792#1" to="202555475#3" modes="public"/>
    </person>
    <person id="ped68" depart="35.09" type="ped_pedestrian">
        <personTrip from="-202555475#3" to="366030062#1" modes="public"/>
    </person>
    <person id="ped69" depart="35.60" type="ped_pedestrian">
        <personTrip from="37274218#0" to="-24620633" modes="public"/>
    </person>
    <person id="ped70" depart="36.12" type="ped_pedestrian">
        <personTrip from="191096153" to="23313215#5" modes="public"/>
    </person>
    <person id="ped71" depart="36.63" type="ped_pedestrian">
        <personTrip from="-53564619#1" to="53564621#0" modes="public"/>
    </person>
    <person id="ped72" depart="37.15" type="ped_pedestrian">
        <personTrip from="156198376" to="-37764820#3" modes="public"/>
    </person>
    <person id="ped73" depart="37.67" type="ped_pedestrian">
        <personTrip from="231912407#0" to="321218956#2" modes="public"/>
    </person>
    <person id="ped74" depart="38.18" type="ped_pedestrian">
        <personTrip from="-34517004#2" to="-91380173#2" modes="public"/>
    </person>
    <person id="ped75" depart="38.70" type="ped_pedestrian">
        <personTrip from="965953205#1" to="284873977#0" modes="public"/>
    </person>
    <person id="ped76" depart="39.21" type="ped_pedestrian">
        <personTrip from="169097417#0" to="23093003#0" modes="public"/>
    </person>
    <person id="ped77" depart="39.73" type="ped_pedestrian">
        <personTrip from="-23471119" to="-387155255#1" modes="public"/>
    </person>
    <person id="ped78" depart="40.25" type="ped_pedestrian">
        <personTrip from="108094950" to="255101899" modes="public"/>
    </person>
    <person id="ped79" depart="40.76" type="ped_pedestrian">
        <personTrip from="-38936645#1" to="-38501721#1" modes="public"/>
    </person>
    <person id="ped80" depart="41.28" type="ped_pedestrian">
        <personTrip from="-203414596" to="272673694#1" modes="public"/>
    </person>
    <person id="ped81" depart="41.79" type="ped_pedestrian">
        <personTrip from="-387498734#1" to="692610313#0" modes="public"/>
    </person>
    <person id="ped82" depart="42.31" type="ped_pedestrian">
        <personTrip from="4807753#2" to="-203372423" modes="public"/>
    </person>
    <person id="ped83" depart="42.83" type="ped_pedestrian">
        <personTrip from="-41949233" to="303259041#1" modes="public"/>
    </person>
    <person id="ped84" depart="43.34" type="ped_pedestrian">
        <personTrip from="-378237365#0" to="-250004209" modes="public"/>
    </person>
    <person id="ped85" depart="43.86" type="ped_pedestrian">
        <personTrip from="758588895#7" to="24008845#1" modes="public"/>
    </person>
    <person id="ped86" depart="44.37" type="ped_pedestrian">
        <personTrip from="186032822" to="38549909" modes="public"/>
    </person>
    <person id="ped87" depart="44.89" type="ped_pedestrian">
        <personTrip from="403701945" to="-321059795#0" modes="public"/>
    </person>
    <person id="ped88" depart="45.41" type="ped_pedestrian">
        <personTrip from="-23163781" to="16361899#3" modes="public"/>
    </person>
    <person id="ped89" depart="45.92" type="ped_pedestrian">
        <personTrip from="156258605#2" to="186004306#6" modes="public"/>
    </person>
    <person id="ped90" depart="46.44" type="ped_pedestrian">
        <personTrip from="321218954#0" to="303780051" modes="public"/>
    </person>
    <person id="ped91" depart="46.95" type="ped_pedestrian">
        <personTrip from="943640761" to="-23184009#4" modes="public"/>
    </person>
    <person id="ped92" depart="47.47" type="ped_pedestrian">
        <personTrip from="130274327" to="1086199877#1" modes="public"/>
    </person>
    <person id="ped93" depart="47.99" type="ped_pedestrian">
        <personTrip from="4807778#5" to="-446118989" modes="public"/>
    </person>
    <person id="ped94" depart="48.50" type="ped_pedestrian">
        <personTrip from="-31770569" to="17281400#0" modes="public"/>
    </person>
    <person id="ped95" depart="49.02" type="ped_pedestrian">
        <personTrip from="156195256" to="-59699309" modes="public"/>
    </person>
    <person id="ped96" depart="49.53" type="ped_pedestrian">
        <personTrip from="-44829958#1" to="696225651#0" modes="public"/>
    </person>
    <person id="ped97" depart="50.05" type="ped_pedestrian">
        <personTrip from="170499443#0" to="4807778#2" modes="public"/>
    </person>
    <person id="ped98" depart="50.57" type="ped_pedestrian">
        <personTrip from="23316364" to="-17096975#0" modes="public"/>
    </person>
    <person id="ped99" depart="51.08" type="ped_pedestrian">
        <personTrip from="986664946" to="446550563" modes="public"/>
    </person>
    <person id="ped100" depart="51.60" type="ped_pedestrian">
        <personTrip from="91381543" to="699824706" modes="public"/>
    </person>
    <person id="ped101" depart="52.11" type="ped_pedestrian">
        <personTrip from="449556512#6" to="-282210464" modes="public"/>
    </person>
    <person id="ped102" depart="52.63" type="ped_pedestrian">
        <personTrip from="202555475#1" to="-378237362#0" modes="public"/>
    </person>
    <person id="ped103" depart="53.14" type="ped_pedestrian">
        <personTrip from="130274305" to="-185992443#0" modes="public"/>
    </person>
    <person id="ped104" depart="53.66" type="ped_pedestrian">
        <personTrip from="1169441395#1" to="947090985" modes="public"/>
    </person>
    <person id="ped105" depart="54.18" type="ped_pedestrian">
        <personTrip from="-53564621#0" to="38507298#7" modes="public"/>
    </person>
    <person id="ped106" depart="54.69" type="ped_pedestrian">
        <personTrip from="183419654#0" to="156197581#1" modes="public"/>
    </person>
    <person id="ped107" depart="55.21" type="ped_pedestrian">
        <personTrip from="89891461#1" to="96641491" modes="public"/>
    </person>
    <person id="ped108" depart="55.72" type="ped_pedestrian">
        <personTrip from="234015059#1" to="317594596#7" modes="public"/>
    </person>
    <person id="ped109" depart="56.24" type="ped_pedestrian">
        <personTrip from="-264621638#1" to="-758588895#3" modes="public"/>
    </person>
    <person id="ped110" depart="56.76" type="ped_pedestrian">
        <personTrip from="91381539#1" to="24621848#3" modes="public"/>
    </person>
    <person id="ped111" depart="57.27" type="ped_pedestrian">
        <personTrip from="231912876#10" to="344566273" modes="public"/>
    </person>
    <person id="ped112" depart="57.79" type="ped_pedestrian">
        <personTrip from="-185953704#2" to="25073400#0" modes="public"/>
    </person>
    <person id="ped113" depart="58.30" type="ped_pedestrian">
        <personTrip from="219260422" to="46165359" modes="public"/>
    </person>
    <person id="ped114" depart="58.82" type="ped_pedestrian">
        <personTrip from="-26633652#0" to="9054569#1" modes="public"/>
    </person>
    <person id="ped115" depart="59.34" type="ped_pedestrian">
        <personTrip from="-22793712#0" to="-314609732" modes="public"/>
    </person>
    <person id="ped116" depart="59.85" type="ped_pedestrian">
        <personTrip from="256954046#1" to="303780077#0" modes="public"/>
    </person>
    <person id="ped117" depart="60.37" type="ped_pedestrian">
        <personTrip from="-404111058#0" to="-23471083#4" modes="public"/>
    </person>
    <person id="ped118" depart="60.88" type="ped_pedestrian">
        <personTrip from="60118564#3" to="-436137030" modes="public"/>
    </person>
    <person id="ped119" depart="61.40" type="ped_pedestrian">
        <personTrip from="256954043" to="266652828#2" modes="public"/>
    </person>
    <person id="ped120" depart="61.92" type="ped_pedestrian">
        <personTrip from="151270442" to="250193386" modes="public"/>
    </person>
    <person id="ped121" depart="62.43" type="ped_pedestrian">
        <personTrip from="23108333#2" to="757223685#2" modes="public"/>
    </person>
    <person id="ped122" depart="62.95" type="ped_pedestrian">
        <personTrip from="-360393484#3" to="317594596#12" modes="public"/>
    </person>
    <person id="ped123" depart="63.46" type="ped_pedestrian">
        <personTrip from="-419654734#0" to="125223104#0" modes="public"/>
    </person>
    <person id="ped124" depart="63.98" type="ped_pedestrian">
        <personTrip from="303756905#0" to="-8026844#3" modes="public"/>
    </person>
    <person id="ped125" depart="64.50" type="ped_pedestrian">
        <personTrip from="-926867314" to="346597743#0" modes="public"/>
    </person>
    <person id="ped126" depart="65.01" type="ped_pedestrian">
        <personTrip from="-208691153" to="185494492" modes="public"/>
    </person>
    <person id="ped127" depart="65.53" type="ped_pedestrian">
        <personTrip from="98502152" to="968544494#0" modes="public"/>
    </person>
    <person id="ped128" depart="66.04" type="ped_pedestrian">
        <personTrip from="-214352046" to="-378237359#2" modes="public"/>
    </person>
    <person id="ped129" depart="66.56" type="ped_pedestrian">
        <personTrip from="-53564621#0" to="733225937#0" modes="public"/>
    </person>
    <person id="ped130" depart="67.08" type="ped_pedestrian">
        <personTrip from="561591786#2" to="558422646#0" modes="public"/>
    </person>
    <person id="ped131" depart="67.59" type="ped_pedestrian">
        <personTrip from="116448776#0" to="-266652828#1" modes="public"/>
    </person>
    <person id="ped132" depart="68.11" type="ped_pedestrian">
        <personTrip from="441972348#0" to="317594477" modes="public"/>
    </person>
    <person id="ped133" depart="68.62" type="ped_pedestrian">
        <personTrip from="26249193#0" to="9514888#10" modes="public"/>
    </person>
    <person id="ped134" depart="69.14" type="ped_pedestrian">
        <personTrip from="29036825#0" to="-1103106740#0" modes="public"/>
    </person>
    <person id="ped135" depart="69.66" type="ped_pedestrian">
        <personTrip from="41949228#2" to="-792301944" modes="public"/>
    </person>
    <person id="ped136" depart="70.17" type="ped_pedestrian">
        <personTrip from="299929337#1" to="781564501" modes="public"/>
    </person>
    <person id="ped137" depart="70.69" type="ped_pedestrian">
        <personTrip from="-25212268#2" to="-23463902#2" modes="public"/>
    </person>
    <person id="ped138" depart="71.20" type="ped_pedestrian">
        <personTrip from="-23285078#4" to="23320510" modes="public"/>
    </person>
    <person id="ped139" depart="71.72" type="ped_pedestrian">
        <personTrip from="-561591786#1" to="25935610#0" modes="public"/>
    </person>
    <person id="ped140" depart="72.24" type="ped_pedestrian">
        <personTrip from="317594596#26" to="-35897001" modes="public"/>
    </person>
    <person id="ped141" depart="72.75" type="ped_pedestrian">
        <personTrip from="27324110#3" to="-53564089" modes="public"/>
    </person>
    <person id="ped142" depart="73.27" type="ped_pedestrian">
        <personTrip from="202580286#0" to="692610312" modes="public"/>
    </person>
    <person id="ped143" depart="73.78" type="ped_pedestrian">
        <personTrip from="449555694#0" to="-23147576#0" modes="public"/>
    </person>
    <person id="ped144" depart="74.30" type="ped_pedestrian">
        <personTrip from="156258605#2" to="-587472387#2" modes="public"/>
    </person>
    <person id="ped145" depart="74.82" type="ped_pedestrian">
        <personTrip from="-103725390#1" to="378237359#1" modes="public"/>
    </person>
    <person id="ped146" depart="75.33" type="ped_pedestrian">
        <personTrip from="277676530#1" to="-53563056" modes="public"/>
    </person>
    <person id="ped147" depart="75.85" type="ped_pedestrian">
        <personTrip from="33565645#1" to="23316382" modes="public"/>
    </person>
    <person id="ped148" depart="76.36" type="ped_pedestrian">
        <personTrip from="158517558#0" to="-1117755602#4" modes="public"/>
    </person>
    <person id="ped149" depart="76.88" type="ped_pedestrian">
        <personTrip from="-219260380#1" to="56256170#3" modes="public"/>
    </person>
    <person id="ped150" depart="77.40" type="ped_pedestrian">
        <personTrip from="692610300#5" to="23275175#3" modes="public"/>
    </person>
    <person id="ped151" depart="77.91" type="ped_pedestrian">
        <personTrip from="444946235" to="24957246#7" modes="public"/>
    </person>
    <person id="ped152" depart="78.43" type="ped_pedestrian">
        <personTrip from="-25901349" to="-24511165" modes="public"/>
    </person>
    <person id="ped153" depart="78.94" type="ped_pedestrian">
        <personTrip from="-9054587#0" to="67601522#1" modes="public"/>
    </person>
    <person id="ped154" depart="79.46" type="ped_pedestrian">
        <personTrip from="394114218#1" to="4807773#0" modes="public"/>
    </person>
    <person id="ped155" depart="79.98" type="ped_pedestrian">
        <personTrip from="67601522#0" to="-375731125#1" modes="public"/>
    </person>
    <person id="ped156" depart="80.49" type="ped_pedestrian">
        <personTrip from="-448036757#0" to="-231912411" modes="public"/>
    </person>
    <person id="ped157" depart="81.01" type="ped_pedestrian">
        <personTrip from="38501722" to="57390265#0" modes="public"/>
    </person>
    <person id="ped158" depart="81.52" type="ped_pedestrian">
        <personTrip from="13861895" to="26684199" modes="public"/>
    </person>
    <person id="ped159" depart="82.04" type="ped_pedestrian">
        <personTrip from="-264335987" to="70531936#2" modes="public"/>
    </person>
    <person id="ped160" depart="82.56" type="ped_pedestrian">
        <personTrip from="482540452" to="921767205#0" modes="public"/>
    </person>
    <person id="ped161" depart="83.07" type="ped_pedestrian">
        <personTrip from="405651028" to="562273432#0" modes="public"/>
    </person>
    <person id="ped162" depart="83.59" type="ped_pedestrian">
        <personTrip from="-125393298#2" to="33004364" modes="public"/>
    </person>
    <person id="ped163" depart="84.10" type="ped_pedestrian">
        <personTrip from="10417265#0" to="70531942#3" modes="public"/>
    </person>
    <person id="ped164" depart="84.62" type="ped_pedestrian">
        <personTrip from="400653107#0" to="4811548#1" modes="public"/>
    </person>
    <person id="ped165" depart="85.14" type="ped_pedestrian">
        <personTrip from="405651028" to="-537710741#1" modes="public"/>
    </person>
    <person id="ped166" depart="85.65" type="ped_pedestrian">
        <personTrip from="386832703#1" to="-23312963#1" modes="public"/>
    </person>
    <person id="ped167" depart="86.17" type="ped_pedestrian">
        <personTrip from="53564619#0" to="4807744#0" modes="public"/>
    </person>
    <person id="ped168" depart="86.68" type="ped_pedestrian">
        <personTrip from="-38507297#0" to="41390564" modes="public"/>
    </person>
    <person id="ped169" depart="87.20" type="ped_pedestrian">
        <personTrip from="185953704#2" to="-894224697" modes="public"/>
    </person>
    <person id="ped170" depart="87.71" type="ped_pedestrian">
        <personTrip from="391867834#1" to="-387401267#7" modes="public"/>
    </person>
    <person id="ped171" depart="88.23" type="ped_pedestrian">
        <personTrip from="-125007817" to="-32807955" modes="public"/>
    </person>
    <person id="ped172" depart="88.75" type="ped_pedestrian">
        <personTrip from="1029381413#0" to="482520403" modes="public"/>
    </person>
    <person id="ped173" depart="89.26" type="ped_pedestrian">
        <personTrip from="911891321" to="-60118564#2" modes="public"/>
    </person>
    <person id="ped174" depart="89.78" type="ped_pedestrian">
        <personTrip from="281967837#1" to="127709248#0" modes="public"/>
    </person>
    <person id="ped175" depart="90.29" type="ped_pedestrian">
        <personTrip from="937790733#1" to="23184024#4" modes="public"/>
    </person>
    <person id="ped176" depart="90.81" type="ped_pedestrian">
        <personTrip from="783691399" to="-23463902#1" modes="public"/>
    </person>
    <person id="ped177" depart="91.33" type="ped_pedestrian">
        <personTrip from="91381592#4" to="-30010690#2" modes="public"/>
    </person>
    <person id="ped178" depart="91.84" type="ped_pedestrian">
        <personTrip from="9054578#0" to="-53564622" modes="public"/>
    </person>
    <person id="ped179" depart="92.36" type="ped_pedestrian">
        <personTrip from="-23312966#0" to="167986395#0" modes="public"/>
    </person>
    <person id="ped180" depart="92.87" type="ped_pedestrian">
        <personTrip from="321218950#2" to="-91381592#4" modes="public"/>
    </person>
    <person id="ped181" depart="93.39" type="ped_pedestrian">
        <personTrip from="25935627" to="22946806#7" modes="public"/>
    </person>
    <person id="ped182" depart="93.91" type="ped_pedestrian">
        <personTrip from="12098783" to="24608421#0" modes="public"/>
    </person>
    <person id="ped183" depart="94.42" type="ped_pedestrian">
        <personTrip from="-4807746#3" to="317594534" modes="public"/>
    </person>
    <person id="ped184" depart="94.94" type="ped_pedestrian">
        <personTrip from="-1023926182#2" to="698212042" modes="public"/>
    </person>
    <person id="ped185" depart="95.45" type="ped_pedestrian">
        <personTrip from="231875724#3" to="317596486#0" modes="public"/>
    </person>
    <person id="ped186" depart="95.97" type="ped_pedestrian">
        <personTrip from="339417763" to="303259051" modes="public"/>
    </person>
    <person id="ped187" depart="96.49" type="ped_pedestrian">
        <personTrip from="1161203899#1" to="-202555478#1" modes="public"/>
    </person>
    <person id="ped188" depart="97.00" type="ped_pedestrian">
        <personTrip from="30010691#2" to="1035471365" modes="public"/>
    </person>
    <person id="ped189" depart="97.52" type="ped_pedestrian">
        <personTrip from="-91382713#0" to="449556512#12" modes="public"/>
    </person>
    <person id="ped190" depart="98.03" type="ped_pedestrian">
        <personTrip from="31765818" to="-823062060" modes="public"/>
    </person>
    <person id="ped191" depart="98.55" type="ped_pedestrian">
        <personTrip from="-911891303#1" to="148835204#0" modes="public"/>
    </person>
    <person id="ped192" depart="99.07" type="ped_pedestrian">
        <personTrip from="130274325#2" to="-751383408#0" modes="public"/>
    </person>
    <person id="ped193" depart="99.58" type="ped_pedestrian">
        <personTrip from="-24510734#1" to="154318129" modes="public"/>
    </person>
    <person id="ped194" depart="100.10" type="ped_pedestrian">
        <personTrip from="791536990#0" to="30760068#1" modes="public"/>
    </person>
    <person id="ped195" depart="100.61" type="ped_pedestrian">
        <personTrip from="692610291" to="264621638#1" modes="public"/>
    </person>
    <person id="ped196" depart="101.13" type="ped_pedestrian">