<?xml version="1.0" encoding="UTF-8"?>

<!-- generated on 2023-05-18 14:39:36.681545 by osmWebWizard.py v1_16_0+0000-94ec4c6cd72
<configuration>
    <begin value="0"/>
    <end value="3600"/>
    <fringe-factor value="5"/>
    <fringe-start-attributes value="departSpeed=&quot;max&quot;"/>
    <insertion-density value="8.0"/>
    <min-distance.fringe value="10.0"/>
    <min-distance value="600.0"/>
    <net-file value="C:\Users\sader\Sumo\2023-05-18-14-37-49\osm.net.xml.gz"/>
    <remove-loops value="True"/>
    <route-file value="C:\Users\sader\Sumo\2023-05-18-14-37-49\osm.truck.rou.xml"/>
    <trip-attributes value="departLane=&quot;best&quot;"/>
    <output-trip-file value="C:\Users\sader\Sumo\2023-05-18-14-37-49\osm.truck.trips.xml"/>
    <prefix value="truck"/>
    <validate value="True"/>
    <vclass value="truck"/>
    <vehicle-class value="truck"/>
</configuration>
-->

<!-- generated on 2023-05-18 14:39:34 by Eclipse SUMO duarouter Version 1.16.0
<configuration xmlns:xsi="http://www.w3.org/2001/XMLSchema-instance" xsi:noNamespaceSchemaLocation="http://sumo.dlr.de/xsd/duarouterConfiguration.xsd">

    <input>
        <net-file value="C:\Users\sader\Sumo\2023-05-18-14-37-49\osm.net.xml.gz"/>
        <route-files value="C:\Users\sader\Sumo\2023-05-18-14-37-49\osm.truck.trips.xml"/>
    </input>

    <output>
        <output-file value="C:\Users\sader\Sumo\2023-05-18-14-37-49\osm.truck.trips.xml.tmp"/>
        <alternatives-output value="NUL"/>
        <write-trips value="true"/>
    </output>

    <processing>
        <remove-loops value="true"/>
    </processing>

    <time>
        <begin value="0"/>
        <end value="3600"/>
    </time>

    <report>
        <no-warnings value="true"/>
        <ignore-errors value="true"/>
        <no-step-log value="true"/>
    </report>

</configuration>
-->

<routes xmlns:xsi="http://www.w3.org/2001/XMLSchema-instance" xsi:noNamespaceSchemaLocation="http://sumo.dlr.de/xsd/routes_file.xsd">
    <vType id="truck_truck" vClass="truck"/>
    <trip id="truck0" type="truck_truck" depart="0.00" departLane="best" departSpeed="max" from="23320502" to="-124051723#2"/>
    <trip id="truck1" type="truck_truck" depart="1.02" departLane="best" departSpeed="max" from="-29214783" to="26683961"/>
    <trip id="truck2" type="truck_truck" depart="2.04" departLane="best" from="261543561#0" to="25384966#1"/>
    <trip id="truck3" type="truck_truck" depart="3.06" departLane="best" from="441764367#0" to="23059678#2"/>
    <trip id="truck4" type="truck_truck" depart="4.09" departLane="best" departSpeed="max" from="-58761524#2" to="135078204#4"/>
    <trip id="truck6" type="truck_truck" depart="6.13" departLane="best" from="-135078204#4" to="25708882#2"/>
    <trip id="truck7" type="truck_truck" depart="7.15" departLane="best" from="-23439978#5" to="-23093187#0"/>
    <trip id="truck8" type="truck_truck" depart="8.17" departLane="best" departSpeed="max" from="-258819167" to="23184022#2"/>
    <trip id="truck9" type="truck_truck" depart="9.19" departLane="best" from="34508801#1" to="-10698330#4"/>
    <trip id="truck10" type="truck_truck" depart="10.21" departLane="best" departSpeed="max" from="33002521" to="25973410#2"/>
    <trip id="truck11" type="truck_truck" depart="11.23" departLane="best" from="387401253#1" to="23528238#0"/>
    <trip id="truck13" type="truck_truck" depart="13.28" departLane="best" from="-23059802" to="23163758"/>
    <trip id="truck14" type="truck_truck" depart="14.30" departLane="best" from="387155265" to="23320559#1"/>
    <trip id="truck15" type="truck_truck" depart="15.32" departLane="best" from="333649636" to="269782617#3"/>
    <trip id="truck16" type="truck_truck" depart="16.34" departLane="best" from="-442274138" to="23151405#0"/>
    <trip id="truck17" type="truck_truck" depart="17.36" departLane="best" from="-378237361" to="23446245#1"/>
    <trip id="truck18" type="truck_truck" depart="18.38" departLane="best" from="391056746#4" to="23275120#1"/>
    <trip id="truck19" type="truck_truck" depart="19.40" departLane="best" departSpeed="max" from="25114914" to="-169127796#0"/>
    <trip id="truck20" type="truck_truck" depart="20.43" departLane="best" from="-25973412#1" to="-384338154#1"/>
    <trip id="truck21" type="truck_truck" depart="21.45" departLane="best" from="-22946802#8" to="273990573#2"/>
    <trip id="truck22" type="truck_truck" depart="22.47" departLane="best" departSpeed="max" from="-23111554#2" to="-36774581"/>
    <trip id="truck23" type="truck_truck" depart="23.49" departLane="best" from="23320404#5" to="-537710741#0"/>
    <trip id="truck24" type="truck_truck" depart="24.51" departLane="best" from="42229181" to="-25973410#6"/>
    <trip id="truck25" type="truck_truck" depart="25.53" departLane="best" from="283020993#4" to="58761524#2"/>
    <trip id="truck26" type="truck_truck" depart="26.55" departLane="best" from="23439929#3" to="23320721"/>
    <trip id="truck27" type="truck_truck" depart="27.58" departLane="best" from="23528209#4" to="269782617#0"/>
    <trip id="truck28" type="truck_truck" depart="28.60" departLane="best" from="-23471029" to="654570576#1"/>
    <trip id="truck29" type="truck_truck" depart="29.62" departLane="best" from="921020467#2" to="23528330#1"/>
    <trip id="truck30" type="truck_truck" depart="30.64" departLane="best" from="-202555478#1" to="255969099"/>
    <trip id="truck31" type="truck_truck" depart="31.66" departLane="best" from="386831071#0" to="-390216941"/>
    <trip id="truck32" type="truck_truck" depart="32.68" departLane="best" from="-260983469#5" to="-149495339#0"/>
    <trip id="truck33" type="truck_truck" depart="33.70" departLane="best" from="-37181837#0" to="-33002521"/>
    <trip id="truck34" type="truck_truck" depart="34.72" departLane="best" from="-25531541#3" to="-613399394"/>
    <trip id="truck35" type="truck_truck" depart="35.75" departLane="best" from="-40817206#3" to="-399038513#24"/>
    <trip id="truck36" type="truck_truck" depart="36.77" departLane="best" from="-23471054#0" to="-881678625#1"/>
    <trip id="truck37" type="truck_truck" depart="37.79" departLane="best" from="-4807774#2" to="156261081#5"/>
    <trip id="truck38" type="truck_truck" depart="38.81" departLane="best" from="-281962648#4" to="29214740#0"/>
    <trip id="truck39" type="truck_truck" depart="39.83" departLane="best" from="4807784#0" to="-317594345#17"/>
    <trip id="truck40" type="truck_truck" depart="40.85" departLane="best" from="23092999#2" to="474485730#0"/>
    <trip id="truck41" type="truck_truck" depart="41.87" departLane="best" from="-4807778#2" to="26614529#4"/>
    <trip id="truck42" type="truck_truck" depart="42.90" departLane="best" from="9515059#3" to="202555475#9"/>
    <trip id="truck43" type="truck_truck" depart="43.92" departLane="best" from="-23059671#0" to="-169127813#5"/>
    <trip id="truck44" type="truck_truck" depart="44.94" departLane="best" from="-23167251#3" to="23471139#2"/>
    <trip id="truck45" type="truck_truck" depart="45.96" departLane="best" from="30998717#0" to="10419529#2"/>
    <trip id="truck46" type="truck_truck" depart="46.98" departLane="best" departSpeed="max" from="-202350637" to="-687182914#1"/>
    <trip id="truck47" type="truck_truck" depart="48.00" departLane="best" from="9514888#8" to="23032786#1"/>
    <trip id="truck48" type="truck_truck" depart="49.02" departLane="best" from="8576730#3" to="400416445#5"/>
    <trip id="truck49" type="truck_truck" depart="50.04" departLane="best" from="111177314#2" to="26632895#1"/>
    <trip id="truck50" type="truck_truck" depart="51.07" departLane="best" departSpeed="max" from="23736861#0" to="23032846"/>
    <trip id="truck51" type="truck_truck" depart="52.09" departLane="best" from="-283020993#4" to="23528344#5"/>
    <trip id="truck52" type="truck_truck" depart="53.11" departLane="best" departSpeed="max" from="-23184008" to="11335846#1"/>
    <trip id="truck53" type="truck_truck" depart="54.13" departLane="best" from="-9054584#11" to="694116204#0"/>
    <trip id="truck54" type="truck_truck" depart="55.15" departLane="best" from="-40751668#0" to="-317594345#21"/>
    <trip id="truck55" type="truck_truck" depart="56.17" departLane="best" from="-135078204#0" to="-24511163#0"/>
    <trip id="truck56" type="truck_truck" depart="57.19" departLane="best" from="4807759#5" to="412792789#4"/>
    <trip id="truck57" type="truck_truck" depart="58.21" departLane="best" departSpeed="max" from="-33098786" to="23528284#4"/>
    <trip id="truck58" type="truck_truck" depart="59.24" departLane="best" from="231875724#11" to="-23528209#2"/>
    <trip id="truck59" type="truck_truck" depart="60.26" departLane="best" from="-273990573#1" to="-23059671#3"/>
    <trip id="truck60" type="truck_truck" depart="61.28" departLane="best" from="29139496" to="23032787#5"/>
    <trip id="truck61" type="truck_truck" depart="62.30" departLane="best" from="10230452#4" to="-411123214#1"/>
    <trip id="truck62" type="truck_truck" depart="63.32" departLane="best" from="-12099346#3" to="555758425#0"/>
    <trip id="truck63" type="truck_truck" depart="64.34" departLane="best" from="412792787" to="386832700"/>
    <trip id="truck64" type="truck_truck" depart="65.36" departLane="best" departSpeed="max" from="-35822597" to="186039900#1"/>
    <trip id="truck65" type="truck_truck" depart="66.39" departLane="best" from="-412792763" to="661603873#0"/>
    <trip id="truck66" type="truck_truck" depart="67.41" departLane="best" departSpeed="max" from="-23032792#4" to="-173309324#1"/>
    <trip id="truck67" type="truck_truck" depart="68.43" departLane="best" departSpeed="max" from="-214347556#1" to="29701032#7"/>
    <trip id="truck68" type="truck_truck" depart="69.45" departLane="best" from="-280092621#1" to="23320427#0"/>
    <trip id="truck69" type="truck_truck" depart="70.47" departLane="best" from="10698327" to="23111552#3"/>
    <trip id="truck70" type="truck_truck" depart="71.49" departLane="best" from="281966910#0" to="-419654734#3"/>
    <trip id="truck71" type="truck_truck" depart="72.51" departLane="best" from="591252083#0" to="-261543560#0"/>
    <trip id="truck72" type="truck_truck" depart="73.53" departLane="best" from="181647033" to="269782617#5"/>
    <trip id="truck73" type="truck_truck" depart="74.56" departLane="best" from="24957194#2" to="394114218#1"/>
    <trip id="truck75" type="truck_truck" depart="76.60" departLane="best" from="-787951055" to="-224106070#5"/>
    <trip id="truck76" type="truck_truck" depart="77.62" departLane="best" from="-23195846" to="-26733892#2"/>
    <trip id="truck77" type="truck_truck" depart="78.64" departLane="best" from="-387296017#0" to="23312956#2"/>
    <trip id="truck78" type="truck_truck" depart="79.66" departLane="best" from="-26249170" to="26632895#0"/>
    <trip id="truck79" type="truck_truck" depart="80.68" departLane="best" from="220797337#0" to="-23528209#4"/>
    <trip id="truck80" type="truck_truck" depart="81.70" departLane="best" from="-260983469#4" to="4807766"/>
    <trip id="truck81" type="truck_truck" depart="82.73" departLane="best" from="390062306" to="22889927#0"/>
    <trip id="truck82" type="truck_truck" depart="83.75" departLane="best" departSpeed="max" from="-265491171" to="24995209#0"/>
    <trip id="truck83" type="truck_truck" depart="84.77" departLane="best" from="-54883366#4" to="23192896#0"/>
    <trip id="truck84" type="truck_truck" depart="85.79" departLane="best" departSpeed="max" from="10424183" to="33001985#1"/>
    <trip id="truck85" type="truck_truck" depart="86.81" departLane="best" from="-33564321" to="-25213998#0"/>
    <trip id="truck86" type="truck_truck" depart="87.83" departLane="best" from="-592426952" to="16361892#1"/>
    <trip id="truck87" type="truck_truck" depart="88.85" departLane="best" from="25973406#1" to="-25214012#0"/>
    <trip id="truck88" type="truck_truck" depart="89.88" departLane="best" departSpeed="max" from="9054586" to="23163762#0"/>
    <trip id="truck89" type="truck_truck" depart="90.90" departLane="best" from="-4811548#1" to="-44459774#0"/>
    <trip id="truck90" type="truck_truck" depart="91.92" departLane="best" from="391056746#2" to="-295849087#1"/>
    <trip id="truck91" type="truck_truck" depart="92.94" departLane="best" from="-24008852#0" to="135078204#2"/>
    <trip id="truck92" type="truck_truck" depart="93.96" departLane="best" departSpeed="max" from="-58761524#2" to="-36905364#2"/>
    <trip id="truck93" type="truck_truck" depart="94.98" departLane="best" from="-269782617#1" to="538358996#3"/>
    <trip id="truck95" type="truck_truck" depart="97.02" departLane="best" from="199025700#0" to="172404481#2"/>
    <trip id="truck96" type="truck_truck" depart="98.05" departLane="best" from="974776881#3" to="387212679#1"/>
    <trip id="truck97" type="truck_truck" depart="99.07" departLane="best" from="823062062#0" to="54883366#0"/>
    <trip id="truck99" type="truck_truck" depart="101.11" departLane="best" from="1162834479#1" to="-26249176#2"/>
    <trip id="truck100" type="truck_truck" depart="102.13" departLane="best" from="-4811294" to="-187997840#0"/>
    <trip id="truck101" type="truck_truck" depart="103.15" departLane="best" from="44459773#1" to="9054585#3"/>
    <trip id="truck102" type="truck_truck" depart="104.17" departLane="best" from="-281966910#1" to="-324058230#0"/>
    <trip id="truck103" type="truck_truck" depart="105.20" departLane="best" from="-9054584#9" to="1042248950#1"/>
    <trip id="truck104" type="truck_truck" depart="106.22" departLane="best" from="702302160" to="-9514888#4"/>
    <trip id="truck105" type="truck_truck" depart="107.24" departLane="best" from="202555475#3" to="266053738#1"/>
    <trip id="truck106" type="truck_truck" depart="108.26" departLane="best" from="-23439907#1" to="387212676"/>
    <trip id="truck107" type="truck_truck" depart="109.28" departLane="best" from="8080009" to="23275124#1"/>
    <trip id="truck108" type="truck_truck" depart="110.30" departLane="best" from="-185953704#0" to="23275231#2"/>
    <trip id="truck109" type="truck_truck" depart="111.32" departLane="best" from="22946807#2" to="-25114914"/>
    <trip id="truck110" type="truck_truck" depart="112.34" departLane="best" from="23163759#2" to="25384891#2"/>
    <trip id="truck111" type="truck_truck" depart="113.37" departLane="best" from="-432904515" to="29214543#0"/>
    <trip id="truck112" type="truck_truck" depart="114.39" departLane="best" from="-23163758" to="23463893#1"/>
    <trip id="truck113" type="truck_truck" depart="115.41" departLane="best" departSpeed="max" from="-57852607#3" to="23275218#2"/>
    <trip id="truck114" type="truck_truck" depart="116.43" departLane="best" from="169097417#0" to="580616776"/>
    <trip id="truck115" type="truck_truck" depart="117.45" departLane="best" from="25213867#5" to="265461451"/>
    <trip id="truck116" type="truck_truck" depart="118.47" departLane="best" departSpeed="max" from="-265491171" to="-881678625#2"/>
    <trip id="truck117" type="truck_truck" depart="119.49" departLane="best" from="-23528352#2" to="-387296014#0"/>
    <trip id="truck118" type="truck_truck" depart="120.51" departLane="best" from="37181840#0" to="28675675#3"/>
    <trip id="truck119" type="truck_truck" depart="121.54" departLane="best" from="22793821#0" to="156261081#0"/>
    <trip id="truck120" type="truck_truck" depart="122.56" departLane="best" from="9515416#3" to="-9514888#8"/>
    <trip id="truck121" type="truck_truck" depart="123.58" departLane="best" from="-22889927#3" to="-26249174#0"/>
    <trip id="truck122" type="truck_truck" depart="124.60" departLane="best" from="-281966910#1" to="57852607#2"/>
    <trip id="truck123" type="truck_truck" depart="125.62" departLane="best" from="-419654733#2" to="432904427#1"/>
    <trip id="truck124" type="truck_truck" depart="126.64" departLane="best" departSpeed="max" from="-419654735#2" to="23528284#19"/>
    <trip id="truck125" type="truck_truck" depart="127.66" departLane="best" from="23205593#0" to="911891320"/>
    <trip id="truck126" type="truck_truck" depart="128.69" departLane="best" from="23463903#1" to="-108793831#0"/>
    <trip id="truck127" type="truck_truck" depart="129.71" departLane="best" from="-35995707#0" to="-387212710#0"/>
    <trip id="truck128" type="truck_truck" depart="130.73" departLane="best" from="23528209#6" to="-592426952"/>
    <trip id="truck129" type="truck_truck" depart="131.75" departLane="best" from="-23285077#1" to="-23275161#0"/>
    <trip id="truck130" type="truck_truck" depart="132.77" departLane="best" departSpeed="max" from="-29214543#2" to="23320633#1"/>
    <trip id="truck131" type="truck_truck" depart="133.79" departLane="best" from="-25531541#0" to="-258841359#0"/>
    <trip id="truck132" type="truck_truck" depart="134.81" departLane="best" departSpeed="max" from="23320404#0" to="-317594345#24"/>
    <trip id="truck133" type="truck_truck" depart="135.83" departLane="best" from="117527770#6" to="4807766"/>
    <trip id="truck134" type="truck_truck" depart="136.86" departLane="best" from="-387155257#2" to="23100738#1"/>
    <trip id="truck135" type="truck_truck" depart="137.88" departLane="best" from="-592426952" to="-366030056#2"/>
    <trip id="truck136" type="truck_truck" depart="138.90" departLane="best" from="-1035471357#0" to="30998715"/>
    <trip id="truck137" type="truck_truck" depart="139.92" departLane="best" from="23320434#1" to="-317594345#11"/>
    <trip id="truck138" type="truck_truck" depart="140.94" departLane="best" from="26249181" to="23151404#0"/>
    <trip id="truck139" type="truck_truck" depart="141.96" departLane="best" from="655748691#1" to="-1088879820"/>
    <trip id="truck140" type="truck_truck" depart="142.98" departLane="best" from="-22910608#3" to="442274130"/>
    <trip id="truck141" type="truck_truck" depart="144.00" departLane="best" from="-4590682#2" to="23093189"/>
    <trip id="truck142" type="truck_truck" depart="145.03" departLane="best" from="383945636#3" to="23275175#3"/>
    <trip id="truck143" type="truck_truck" depart="146.05" departLane="best" departSpeed="max" from="-35995707#2" to="474485741#1"/>
    <trip id="truck144" type="truck_truck" depart="147.07" departLane="best" from="-314882254#2" to="400416445#5"/>
    <trip id="truck145" type="truck_truck" depart="148.09" departLane="best" from="448974987#0" to="-25973412#0"/>
    <trip id="truck146" type="truck_truck" depart="149.11" departLane="best" departSpeed="max" from="29214824" to="442274147"/>
    <trip id="truck147" type="truck_truck" depart="150.13" departLane="best" from="-537356312#0" to="23463897#1"/>
    <trip id="truck148" type="truck_truck" depart="151.15" departLane="best" from="-23439906#2" to="560583352"/>
    <trip id="truck149" type="truck_truck" depart="152.18" departLane="best" from="393624986#2" to="-89290459#0"/>
    <trip id="truck150" type="truck_truck" depart="153.20" departLane="best" from="345736590" to="43336934#0"/>
    <trip id="truck151" type="truck_truck" depart="154.22" departLane="best" from="-135078199#4" to="27425567#1"/>
    <trip id="truck152" type="truck_truck" depart="155.24" departLane="best" from="-386831074" to="560583353#2"/>
    <trip id="truck153" type="truck_truck" depart="156.26" departLane="best" from="317594345#8" to="4066943#5"/>
    <trip id="truck154" type="truck_truck" depart="157.28" departLane="best" from="345736590" to="-323107046"/>
    <trip id="truck155" type="truck_truck" depart="158.30" departLane="best" from="-30032695#1" to="231875724#4"/>
    <trip id="truck156" type="truck_truck" depart="159.32" departLane="best" from="-937779287#2" to="-387498727#0"/>
    <trip id="truck157" type="truck_truck" depart="160.35" departLane="best" from="31157172#6" to="269782616#1"/>
    <trip id="truck158" type="truck_truck" depart="161.37" departLane="best" departSpeed="max" from="-128115937#3" to="-25415491"/>
    <trip id="truck159" type="truck_truck" depart="162.39" departLane="best" from="385405409#0" to="4067008"/>
    <trip id="truck160" type="truck_truck" depart="163.41" departLane="best" from="8026683#5" to="23439906#0"/>
    <trip id="truck161" type="truck_truck" depart="164.43" departLane="best" from="23320593#5" to="-896339462"/>
    <trip id="truck162" type="truck_truck" depart="165.45" departLane="best" from="9054582#1" to="23032845#2"/>
    <trip id="truck163" type="truck_truck" depart="166.47" departLane="best" from="570009376#0" to="-23275161#0"/>
    <trip id="truck164" type="truck_truck" depart="167.50" departLane="best" from="8571803#2" to="-24510734#1"/>
    <trip id="truck165" type="truck_truck" depart="168.52" departLane="best" from="78043860#8" to="32197056#0"/>
    <trip id="truck166" type="truck_truck" depart="169.54" departLane="best" from="23163787#0" to="1157387458"/>
    <trip id="truck167" type="truck_truck" depart="170.56" departLane="best" from="25973390" to="-399038513#17"/>
    <trip id="truck168" type="truck_truck" depart="171.58" departLane="best" from="23184033#1" to="208865182"/>
    <trip id="truck169" type="truck_truck" depart="172.60" departLane="best" from="-448974997#1" to="23275120#0"/>
    <trip id="truck170" type="truck_truck" depart="173.62" departLane="best" from="-1023926180#2" to="54883017#2"/>
    <trip id="truck171" type="truck_truck" depart="174.64" departLane="best" from="181275262#1" to="26614529#3"/>
    <trip id="truck172" type="truck_truck" depart="175.67" departLane="best" from="26249189" to="-25114845#1"/>
    <trip id="truck173" type="truck_truck" depart="176.69" departLane="best" from="-411123214#1" to="-22793652#0"/>
    <trip id="truck174" type="truck_truck" depart="177.71" departLane="best" from="-37181832#1" to="388285827#0"/>
    <trip id="truck176" type="truck_truck" depart="179.75" departLane="best" from="-366030054#0" to="-926867310"/>
    <trip id="truck177" type="truck_truck" depart="180.77" departLane="best" from="-4811548#0" to="387155256"/>
    <trip id="truck178" type="truck_truck" depart="181.79" departLane="best" departSpeed="max" from="-23275124#1" to="1035471363"/>
    <trip id="truck179" type="truck_truck" depart="182.81" departLane="best" from="-580616774#1" to="1023926180#1"/>
    <trip id="truck180" type="truck_truck" depart="183.84" departLane="best" from="-45524884#3" to="23439978#0"/>
    <trip id="truck181" type="truck_truck" depart="184.86" departLane="best" departSpeed="max" from="-33565555#1" to="23100755#0"/>
    <trip id="truck182" type="truck_truck" depart="185.88" departLane="best" from="-10230452#3" to="-38152334#5"/>
    <trip id="truck183" type="truck_truck" depart="186.90" departLane="best" from="688229200" to="23275131#3"/>
    <trip id="truck184" type="truck_truck" depart="187.92" departLane="best" from="23471026#1" to="159822900"/>
    <trip id="truck185" type="truck_truck" depart="188.94" departLane="best" from="-8026683#9" to="-26249176#2"/>
    <trip id="truck186" type="truck_truck" depart="189.96" departLane="best" departSpeed="max" from="10424183" to="4807746#3"/>
    <trip id="truck187" type="truck_truck" depart="190.99" departLane="best" from="-314882254#0" to="-23724230#2"/>
    <trip id="truck188" type="truck_truck" depart="192.01" departLane="best" from="-23032792#1" to="220151058"/>
    <trip id="truck189" type="truck_truck" depart="193.03" departLane="best" from="23320397#1" to="432904427#4"/>
    <trip id="truck190" type="truck_truck" depart="194.05" departLane="best" from="366030055#3" to="286421142"/>
    <trip id="truck191" type="truck_truck" depart="195.07" departLane="best" from="-23528356#3" to="-26733892#2"/>
    <trip id="truck192" type="truck_truck" depart="196.09" departLane="best" departSpeed="max" from="-24608272#1" to="-122124925#3"/>
    <trip id="truck193" type="truck_truck" depart="197.11" departLane="best" from="-266652820#2" to="-169097419#1"/>
    <trip id="truck194" type="truck_truck" depart="198.13" departLane="best" from="387212690#2" to="-22910608#1"/>
    <trip id="truck195" type="truck_truck" depart="199.16" departLane="best" from="560583335#0" to="-23528209#1"/>
    <trip id="truck196" type="truck_truck" depart="200.18" departLane="best" departSpeed="max" from="-24508781#1" to="-25973407#2"/>
    <trip id="truck197" type="truck_truck" depart="201.20" departLane="best" from="121495762" to="-29036906#1"/>
    <trip id="truck198" type="truck_truck" depart="202.22" departLane="best" from="-23471056#2" to="10518206"/>
    <trip id="truck199" type="truck_truck" depart="203.24" departLane="best" from="26683916#0" to="30998712#1"/>
    <trip id="truck200" type="truck_truck" depart="204.26" departLane="best" from="23163779#0" to="105914662#1"/>
    <trip id="truck201" type="truck_truck" depart="205.28" departLane="best" from="-23528284#0" to="761051959#0"/>
    <trip id="truck202" type="truck_truck" depart="206.30" departLane="best" from="16361898#1" to="17096975#2"/>
    <trip id="truck203" type="truck_truck" depart="207.33" departLane="best" from="-269782616#0" to="390062306"/>
    <trip id="truck204" type="truck_truck" depart="208.35" departLane="best" from="-9054587#0" to="366030054#1"/>
    <trip id="truck205" type="truck_truck" depart="209.37" departLane="best" from="-23528284#1" to="911891326#1"/>
    <trip id="truck206" type="truck_truck" depart="210.39" departLane="best" from="23163759#5" to="692610317#1"/>
    <trip id="truck207" type="truck_truck" depart="211.41" departLane="best" from="436137030" to="23415819"/>
    <trip id="truck208" type="truck_truck" depart="212.43" departLane="best" from="25576697#5" to="202421489#3"/>
    <trip id="truck209" type="truck_truck" depart="213.45" departLane="best" from="378237373#1" to="23100738#1"/>
    <trip id="truck210" type="truck_truck" depart="214.48" departLane="best" from="-448036753" to="281956697"/>
    <trip id="truck211" type="truck_truck" depart="215.50" departLane="best" from="10698326#0" to="-31424596#0"/>
    <trip id="truck212" type="truck_truck" depart="216.52" departLane="best" from="26733892#2" to="23528284#12"/>
    <trip id="truck213" type="truck_truck" depart="217.54" departLane="best" from="-280092621#1" to="22910608#3"/>
    <trip id="truck214" type="truck_truck" depart="218.56" departLane="best" from="-22946801#2" to="-378237362#4"/>
    <trip id="truck215" type="truck_truck" depart="219.58" departLane="best" from="-29214449" to="-400416447#1"/>
    <trip id="truck216" type="truck_truck" depart="220.60" departLane="best" from="182054708#1" to="-23439907#1"/>
    <trip id="truck217" type="truck_truck" depart="221.62" departLane="best" from="-26249176#1" to="259423427#1"/>
    <trip id="truck218" type="truck_truck" depart="222.65" departLane="best" from="25213492" to="202555475#5"/>
    <trip id="truck219" type="truck_truck" depart="223.67" departLane="best" from="537710741#4" to="23093005#2"/>
    <trip id="truck220" type="truck_truck" depart="224.69" departLane="best" departSpeed="max" from="-560583353#2" to="-25973407#0"/>
    <trip id="truck221" type="truck_truck" depart="225.71" departLane="best" departSpeed="max" from="-580616776" to="4807765#5"/>
    <trip id="truck222" type="truck_truck" depart="226.73" departLane="best" from="23059834#1" to="25973401#1"/>
    <trip id="truck223" type="truck_truck" depart="227.75" departLane="best" from="-387401267#6" to="303259049"/>
    <trip id="truck224" type="truck_truck" depart="228.77" departLane="best" from="448036751#1" to="10698330#0"/>
    <trip id="truck225" type="truck_truck" depart="229.80" departLane="best" from="399038513#15" to="-290577629#1"/>
    <trip id="truck226" type="truck_truck" depart="230.82" departLane="best" from="387401253#0" to="694012906#1"/>
    <trip id="truck227" type="truck_truck" depart="231.84" departLane="best" departSpeed="max" from="-57852607#3" to="282513344#0"/>
    <trip id="truck228" type="truck_truck" depart="232.86" departLane="best" from="186037693#0" to="23320559#1"/>
    <trip id="truck229" type="truck_truck" depart="233.88" departLane="best" departSpeed="max" from="-258819167" to="26614713"/>
    <trip id="truck230" type="truck_truck" depart="234.90" departLane="best" from="78043860#8" to="135078202#0"/>
    <trip id="truck231" type="truck_truck" depart="235.92" departLane="best" from="387212690#3" to="25497525"/>
    <trip id="truck233" type="truck_truck" depart="237.97" departLane="best" from="1023926180#3" to="-23320404#5"/>
    <trip id="truck235" type="truck_truck" depart="240.01" departLane="best" departSpeed="max" from="-135078204#5" to="23528359#0"/>
    <trip id="truck236" type="truck_truck" depart="241.03" departLane="best" from="-23313208" to="158355467#2"/>
    <trip id="truck237" type="truck_truck" depart="242.05" departLane="best" departSpeed="max" from="-17076383#1" to="-613399395"/>
    <trip id="truck238" type="truck_truck" depart="243.07" departLane="best" from="-25576697#1" to="412792789#5"/>
    <trip id="truck239" type="truck_truck" depart="244.09" departLane="best" from="-273990571#2" to="-613710375"/>
    <trip id="truck240" type="truck_truck" depart="245.11" departLane="best" from="-26684108#1" to="386832701#1"/>
    <trip id="truck241" type="truck_truck" depart="246.14" departLane="best" departSpeed="max" from="-27297291" to="-23032792#1"/>
    <trip id="truck242" type="truck_truck" depart="247.16" departLane="best" from="-12099346#2" to="-23059671#3"/>
    <trip id="truck243" type="truck_truck" depart="248.18" departLane="best" from="-990451065" to="-474485739"/>
    <trip id="truck246" type="truck_truck" depart="251.24" departLane="best" from="-12099346#9" to="23528207#9"/>
    <trip id="truck247" type="truck_truck" depart="252.26" departLane="best" from="23275122#2" to="25072931#0"/>
    <trip id="truck248" type="truck_truck" depart="253.29" departLane="best" departSpeed="max" from="22793652#0" to="-266053738#0"/>
    <trip id="truck249" type="truck_truck" depart="254.31" departLane="best" departSpeed="max" from="24666917" to="306683410#3"/>
    <trip id="truck250" type="truck_truck" depart="255.33" departLane="best" from="-23471139#4" to="23320645"/>