<?xml version="1.0" encoding="UTF-8"?>

<!-- Generated with generateParkingAreasFromOSM.py [https://github.com/lcodeca/SUMOActivityGen] -->

<additional xmlns:xsi="http://www.w3.org/2001/XMLSchema-instance" xsi:noNamespaceSchemaLocation="http://sumo.dlr.de/xsd/additional_file.xsd"> 
    <parkingArea id="125816997" lane="12099349_1" startPos="10.0" endPos="20.0" roadsideCapacity="8" friendlyPos="true"/>
    <parkingArea id="246117375" lane="4066943#3_1" startPos="54.53013786131179" endPos="64.5301378613118" roadsideCapacity="100" friendlyPos="true"/>
    <parkingArea id="267643015" lane="23196349_1" startPos="84.05" endPos="94.05" roadsideCapacity="100" friendlyPos="true"/>
    <parkingArea id="267643032" lane="4807751#2_1" startPos="10.0" endPos="20.0" roadsideCapacity="100" friendlyPos="true"/>
    <parkingArea id="271724271" lane="10424183#4_1" startPos="755.9775116000171" endPos="765.9775116000171" roadsideCapacity="100" friendlyPos="true"/>
    <parkingArea id="277444001" lane="-288808359_1" startPos="10.0" endPos="20.0" roadsideCapacity="100" friendlyPos="true"/>
    <parkingArea id="278802096" lane="25576697#3_0" startPos="10.0" endPos="20.0" roadsideCapacity="100" friendlyPos="true"/>
    <parkingArea id="315256340" lane="-94166203#1_1" startPos="43.2" endPos="53.2" roadsideCapacity="100" friendlyPos="true"/>
    <parkingArea id="321507115" lane="-237147355_0" startPos="17.053153895330304" endPos="27.053153895330304" roadsideCapacity="100" friendlyPos="true"/>
    <parkingArea id="344086802" lane="45524895#11_0" startPos="10.083197186542522" endPos="20.08319718654252" roadsideCapacity="100" friendlyPos="true"/>
    <parkingArea id="382366440" lane="4807744#1_1" startPos="10.0" endPos="20.0" roadsideCapacity="278" friendlyPos="true"/>
    <parkingArea id="394891840" lane="661603871_1" startPos="14.130000000000003" endPos="24.130000000000003" roadsideCapacity="355" friendlyPos="true"/>
    <parkingArea id="418702459" lane="23535790#2_1" startPos="10.0" endPos="20.0" roadsideCapacity="100" friendlyPos="true"/>
    <parkingArea id="418704735" lane="755934750#1_1" startPos="12.11" endPos="22.11" roadsideCapacity="100" friendlyPos="true"/>
    <parkingArea id="443393700" lane="32819877#4_1" startPos="29.214524815087337" endPos="39.21452481508734" roadsideCapacity="100" friendlyPos="true"/>
    <parkingArea id="446708330" lane="38020353#1_1" startPos="10.0" endPos="20.0" roadsideCapacity="10" friendlyPos="true"/>
    <parkingArea id="453226558" lane="23174412_1" startPos="22.020000000000003" endPos="32.02" roadsideCapacity="100" friendlyPos="true"/>
    <parkingArea id="453226722" lane="23313208_0" startPos="10.0" endPos="20.0" roadsideCapacity="100" friendlyPos="true"/>
    <parkingArea id="455539534" lane="515361234#3_1" startPos="10.0" endPos="20.0" roadsideCapacity="100" friendlyPos="true"/>
    <parkingArea id="455577488" lane="-384972994#0_1" startPos="267.95636380524263" endPos="277.95636380524263" roadsideCapacity="100" friendlyPos="true"/>
    <parkingArea id="476658015" lane="4807778#3_1" startPos="13.428604805197956" endPos="23.428604805197956" roadsideCapacity="100" friendlyPos="true"/>
    <parkingArea id="531838586" lane="675777502_1" startPos="29.18686395646366" endPos="39.18686395646366" roadsideCapacity="5" friendlyPos="true"/>
    <parkingArea id="583709015" lane="237147354#0_0" startPos="84.48221556976989" endPos="94.48221556976989" roadsideCapacity="100" friendlyPos="true"/>
    <parkingArea id="613940020" lane="-23184017_1" startPos="72.61" endPos="82.61" roadsideCapacity="100" friendlyPos="true"/>
    <parkingArea id="676692775" lane="448036759_1" startPos="10.0" endPos="20.0" roadsideCapacity="100" friendlyPos="true"/>
    <parkingArea id="688422589" lane="237147354#0_0" startPos="48.67799095869901" endPos="58.67799095869901" roadsideCapacity="100" friendlyPos="true"/>
    <parkingArea id="705892858" lane="70531942#4_1" startPos="16.39" endPos="26.39" roadsideCapacity="100" friendlyPos="true"/>
    <parkingArea id="720595645" lane="-755934750#1_1" startPos="12.759999999999998" endPos="22.759999999999998" roadsideCapacity="100" friendlyPos="true"/>
    <parkingArea id="720597355" lane="-146651697#2_1" startPos="15.670000000000002" endPos="25.67" roadsideCapacity="1" friendlyPos="true"/>
    <parkingArea id="841732182" lane="-158077053#0_1" startPos="31.619999999999997" endPos="41.62" roadsideCapacity="100" friendlyPos="true"/>
    <parkingArea id="1105630409" lane="694012899#0_1" startPos="66.87" endPos="76.87" roadsideCapacity="100" friendlyPos="true"/>
    <parkingArea id="1197329847" lane="899604572#2_0" startPos="131.5" endPos="141.5" roadsideCapacity="100" friendlyPos="true"/>
    <parkingArea id="1389649593" lane="-23163759#8_1" startPos="13.045947121895537" endPos="23.045947121895537" roadsideCapacity="100" friendlyPos="true"/>
    <parkingArea id="1417869209" lane="151742731#2_2" startPos="53.66" endPos="63.66" roadsideCapacity="100" friendlyPos="true"/>
    <parkingArea id="1597821275" lane="23534522#1_1" startPos="10.0" endPos="20.0" roadsideCapacity="100" friendlyPos="true"/>
    <parkingArea id="1619068024" lane="23285078#13_1" startPos="10.0" endPos="20.0" roadsideCapacity="50" friendlyPos="true"/>
    <parkingArea id="1619097845" lane="-23442318#3_0" startPos="13.560000000000002" endPos="23.560000000000002" roadsideCapacity="200" friendlyPos="true"/>
    <parkingArea id="1619097884" lane="-33001985#0_1" startPos="10.0" endPos="20.0" roadsideCapacity="100" friendlyPos="true"/>
    <parkingArea id="1619130261" lane="-33002033_0" startPos="56.22" endPos="66.22" roadsideCapacity="100" friendlyPos="true"/>
    <parkingArea id="1619157635" lane="70531942#3_1" startPos="14.57" endPos="24.57" roadsideCapacity="100" friendlyPos="true"/>
    <parkingArea id="1664767196" lane="-153844732#3_1" startPos="27.248406768645665" endPos="37.248406768645665" roadsideCapacity="100" friendlyPos="true"/>
    <parkingArea id="1664767197" lane="-153844732#3_1" startPos="10.0" endPos="20.0" roadsideCapacity="100" friendlyPos="true"/>
    <parkingArea id="1685198037" lane="-26249172#3_1" startPos="34.46827882310752" endPos="44.46827882310752" roadsideCapacity="100" friendlyPos="true"/>
    <parkingArea id="1744470102" lane="-12787707#0_1" startPos="10.0" endPos="20.0" roadsideCapacity="100" friendlyPos="true"/>
    <parkingArea id="1786518008" lane="-23119545_1" startPos="101.96" endPos="111.96" roadsideCapacity="100" friendlyPos="true"/>
    <parkingArea id="1786518014" lane="4066943#3_1" startPos="60.31999999999999" endPos="70.32" roadsideCapacity="100" friendlyPos="true"/>
    <parkingArea id="1802931321" lane="-25214142#1_1" startPos="10.0" endPos="20.0" roadsideCapacity="10" friendlyPos="true"/>
    <parkingArea id="1811020360" lane="-763186996#0_1" startPos="10.0" endPos="20.0" roadsideCapacity="100" friendlyPos="true"/>
    <parkingArea id="1827352884" lane="-10442531#7_1" startPos="47.989999999999995" endPos="57.989999999999995" roadsideCapacity="100" friendlyPos="true"/>
    <parkingArea id="1942709587" lane="10422292#2_0" startPos="10.0" endPos="20.0" roadsideCapacity="100" friendlyPos="true"/>
    <parkingArea id="1979642762" lane="-77250274#2_1" startPos="46.05679961331277" endPos="56.05679961331277" roadsideCapacity="100" friendlyPos="true"/>
    <parkingArea id="2018515627" lane="94166210#0_1" startPos="10.0" endPos="20.0" roadsideCapacity="100" friendlyPos="true"/>
    <parkingArea id="2032694870" lane="-4811292_0" startPos="56.16138465542273" endPos="66.16138465542272" roadsideCapacity="100" friendlyPos="true"/>
    <parkingArea id="2058242791" lane="-148497084#1_1" startPos="10.0" endPos="20.0" roadsideCapacity="100" friendlyPos="true"/>
    <parkingArea id="2262615184" lane="4066943#3_1" startPos="41.45115957473676" endPos="51.45115957473676" roadsideCapacity="100" friendlyPos="true"/>
    <parkingArea id="2291332996" lane="154234474_0" startPos="10.0" endPos="20.0" roadsideCapacity="100" friendlyPos="true"/>
    <parkingArea id="2291333004" lane="154234474_0" startPos="10.0" endPos="20.0" roadsideCapacity="100" friendlyPos="true"/>
    <parkingArea id="2572087399" lane="-111211375#0_1" startPos="107.73" endPos="117.73" roadsideCapacity="100" friendlyPos="true"/>
    <parkingArea id="2572108715" lane="-111211375#0_1" startPos="107.73" endPos="117.73" roadsideCapacity="100" friendlyPos="true"/>
    <parkingArea id="2572156188" lane="387296035#6_1" startPos="33.83819881904751" endPos="43.83819881904751" roadsideCapacity="100" friendlyPos="true"/>
    <parkingArea id="2754297642" lane="-25807587#1_1" startPos="10.0" endPos="20.0" roadsideCapacity="100" friendlyPos="true"/>
    <parkingArea id="2770415910" lane="25807587#1_1" startPos="18.78" endPos="28.78" roadsideCapacity="100" friendlyPos="true"/>
    <parkingArea id="2770909569" lane="-24865698#0_0" startPos="10.0" endPos="20.0" roadsideCapacity="100" friendlyPos="true"/>
    <parkingArea id="2770909589" lane="-24865698#6_0" startPos="25.97" endPos="35.97" roadsideCapacity="100" friendlyPos="true"/>
    <parkingArea id="2770909596" lane="-24865698#4_0" startPos="10.0" endPos="20.0" roadsideCapacity="100" friendlyPos="true"/>
    <parkingArea id="2770909600" lane="-24865698#6_0" startPos="10.0" endPos="20.0" roadsideCapacity="100" friendlyPos="true"/>
    <parkingArea id="2776916394" lane="-10422292#4_0" startPos="18.799999999999997" endPos="28.799999999999997" roadsideCapacity="100" friendlyPos="true"/>
    <parkingArea id="2789517261" lane="-9514888#9_1" startPos="10.0" endPos="20.0" roadsideCapacity="100" friendlyPos="true"/>
    <parkingArea id="2789517263" lane="-9514888#9_1" startPos="10.0" endPos="20.0" roadsideCapacity="100" friendlyPos="true"/>
    <parkingArea id="2791742261" lane="10422292#4_0" startPos="18.82" endPos="28.82" roadsideCapacity="100" friendlyPos="true"/>
    <parkingArea id="3119585606" lane="266053738#1_1" startPos="28.39" endPos="38.39" roadsideCapacity="100" friendlyPos="true"/>
    <parkingArea id="3119585607" lane="37181832#3_1" startPos="10.0" endPos="20.0" roadsideCapacity="2" friendlyPos="true"/>
    <parkingArea id="3119585609" lane="37181832#3_1" startPos="10.0" endPos="20.0" roadsideCapacity="100" friendlyPos="true"/>
    <parkingArea id="3224027377" lane="4807750_1" startPos="34.69" endPos="44.69" roadsideCapacity="100" friendlyPos="true"/>
    <parkingArea id="4566767843" lane="-317544600#0_2" startPos="10.0" endPos="20.0" roadsideCapacity="100" friendlyPos="true"/>
    <parkingArea id="4737065753" lane="12787707#0_1" startPos="19.161971739559476" endPos="29.161971739559476" roadsideCapacity="100" friendlyPos="true"/>
    <parkingArea id="4742628211" lane="548505095#1_1" startPos="10.0" endPos="20.0" roadsideCapacity="100" friendlyPos="true"/>
    <parkingArea id="5033193912" lane="-515361234#4_1" startPos="10.0" endPos="20.0" roadsideCapacity="100" friendlyPos="true"/>
    <parkingArea id="5033193913" lane="515361234#4_1" startPos="10.0" endPos="20.0" roadsideCapacity="100" friendlyPos="true"/>
    <parkingArea id="5282752174" lane="168355066#2_0" startPos="29.67139154420282" endPos="39.67139154420282" roadsideCapacity="100" friendlyPos="true"/>
    <parkingArea id="5329519894" lane="4807772#2_0" startPos="51.620000000000005" endPos="61.620000000000005" roadsideCapacity="100" friendlyPos="true"/>
    <parkingArea id="5909798243" lane="-378237359#5_1" startPos="10.0" endPos="20.0" roadsideCapacity="100" friendlyPos="true"/>
    <parkingArea id="6040100993" lane="387155262_1" startPos="23.659999999999997" endPos="33.66" roadsideCapacity="9" friendlyPos="true"/>
    <parkingArea id="6116003713" lane="-573703452_0" startPos="53.869163037659895" endPos="63.869163037659895" roadsideCapacity="100" friendlyPos="true"/>
    <parkingArea id="6116003714" lane="-573703452_0" startPos="22.58143700345649" endPos="32.581437003456486" roadsideCapacity="100" friendlyPos="true"/>
    <parkingArea id="6146495513" lane="-23442318#3_0" startPos="13.560000000000002" endPos="23.560000000000002" roadsideCapacity="100" friendlyPos="true"/>
    <parkingArea id="6589769240" lane="-25643795_1" startPos="18.700000000000003" endPos="28.700000000000003" roadsideCapacity="100" friendlyPos="true"/>
    <parkingArea id="7022277667" lane="-25807587#4_1" startPos="45.36" endPos="55.36" roadsideCapacity="100" friendlyPos="true"/>
    <parkingArea id="7099760032" lane="25141433#1_1" startPos="10.0" endPos="20.0" roadsideCapacity="100" friendlyPos="true"/>
    <parkingArea id="8378568325" lane="42229186_1" startPos="10.0" endPos="20.0" roadsideCapacity="4" friendlyPos="true"/>
    <parkingArea id="8468008053" lane="911891322_1" startPos="10.0" endPos="20.0" roadsideCapacity="100" friendlyPos="true"/>
    <parkingArea id="9056608225" lane="-31151991#0_1" startPos="10.0" endPos="20.0" roadsideCapacity="100" friendlyPos="true"/>
    <parkingArea id="9056608226" lane="-31151991#0_1" startPos="10.0" endPos="20.0" roadsideCapacity="100" friendlyPos="true"/>
    <parkingArea id="9056608227" lane="-31151991#0_1" startPos="10.0" endPos="20.0" roadsideCapacity="100" friendlyPos="true"/>
    <parkingArea id="9747032013" lane="648572118#0_1" startPos="17.36351882544004" endPos="27.36351882544004" roadsideCapacity="100" friendlyPos="true"/>
    <parkingArea id="9802737080" lane="-258841359#6_1" startPos="10.0" endPos="20.0" roadsideCapacity="100" friendlyPos="true"/>
    <parkingArea id="9802737091" lane="258841359#4_1" startPos="10.0" endPos="20.0" roadsideCapacity="100" friendlyPos="true"/>
    <parkingArea id="9804854698" lane="258841359#0_1" startPos="23.049999999999997" endPos="33.05" roadsideCapacity="100" friendlyPos="true"/>
    <parkingArea id="10137331069" lane="-23528207#9_1" startPos="10.0" endPos="20.0" roadsideCapacity="3" friendlyPos="true"/>
    <parkingArea id="10269696180" lane="316354387#1_1" startPos="111.93460638319918" endPos="121.93460638319918" roadsideCapacity="350" friendlyPos="true"/>
    <parkingArea id="10614192737" lane="-23320804#8_1" startPos="25.409999999999997" endPos="35.41" roadsideCapacity="100" friendlyPos="true"/>
    <parkingArea id="10947641335" lane="-25973409#2_2" startPos="26.430705233901076" endPos="36.43070523390108" roadsideCapacity="100" friendlyPos="true"/>
    <parkingArea id="11343230697" lane="23032788#3_1" startPos="30.880000000000003" endPos="40.88" roadsideCapacity="100" friendlyPos="true"/>
    <parkingArea id="11343230700" lane="23032788#3_1" startPos="30.880000000000003" endPos="40.88" roadsideCapacity="100" friendlyPos="true"/>
</additional>
    