<?xml version="1.0" encoding="UTF-8"?>

<!-- generated on 2023-07-06 18:02:37.580908 by $Id: ptlines2flows.py v1_3_1+0313-ccb31df3eb jakob.erdmann@dlr.de 2019-09-02 13:26:32 +0200 $ v1_16_0+0000-94ec4c6cd72
  options: 
-->

<routes xmlns:xsi="http://www.w3.org/2001/XMLSchema-instance" xsi:noNamespaceSchemaLocation="http://sumo.dlr.de/xsd/routes_file.xsd">
    <vType id="pt_bus" vClass="bus" speedFactor="0.95"/>
    <vType id="pt_tram" vClass="tram" speedFactor="1.0"/>
    <vType id="pt_train" vClass="rail"/>
    <vType id="pt_subway" vClass="rail_urban"/>
    <vType id="pt_light_rail" vClass="rail_urban"/>
    <vType id="pt_monorail" vClass="rail_urban"/>
    <vType id="pt_trolleybus" vClass="bus" speedFactor="0.95"/>
    <vType id="pt_minibus" vClass="bus" speedFactor="0.95"/>
    <vType id="pt_share_taxi" vClass="taxi" speedFactor="0.95"/>
    <vType id="pt_aerialway" vClass="rail_urban" length="2.5" width="2" personCapacity="4"/>
    <vType id="pt_ferry" vClass="ship"/>
    <trip id="0_bus_114:0" type="pt_bus" depart="3.0" departLane="best" from="384972991#1" to="57852607#2">
        <stop busStop="2739052081" duration="30"/>
        <stop busStop="-1254192526" duration="30"/>
        <stop busStop="1219607572" duration="30"/>
        <stop busStop="2626499005" duration="30"/>
    </trip>
    <trip id="1_bus_114:1" type="pt_bus" depart="15.0" departLane="best" from="-57852607#2" to="384972991#1">
        <stop busStop="3876398764" duration="30"/>
        <stop busStop="3876394650" duration="30"/>
    </trip>
    <trip id="2_train_RE_5:0" type="pt_train" depart="15.0" departLane="best" from="248760538#0" to="48316096#2">
        <stop busStop="2661523902" duration="30"/>
        <stop busStop="3068257018" duration="30"/>
    </trip>
    <trip id="3_bus_114:2" type="pt_bus" depart="17.0" departLane="best" from="384972991#1" to="57852607#2">
        <stop busStop="2739052081" duration="30"/>
        <stop busStop="-6515317595" duration="30"/>
    </trip>
    <trip id="4_bus_106:0" type="pt_bus" depart="19.0" departLane="best" from="384972991#1" to="57852607#2">
        <stop busStop="2739052081" duration="30"/>
        <stop busStop="-6515317595" duration="30"/>
    </trip>
    <trip id="5_train_S1:0" type="pt_train" depart="27.0" departLane="best" from="292876200#0" to="180784454#3">
        <stop busStop="263337116" duration="30"/>
        <stop busStop="263337125" duration="30"/>
        <stop busStop="1187584571" duration="30"/>
        <stop busStop="1187534664" duration="30"/>
        <stop busStop="3082151227" duration="30"/>
        <stop busStop="1187477995" duration="30"/>
    </trip>
    <trip id="6_bus_138:0" type="pt_bus" depart="47.0" departLane="best" from="181647035" to="220797339">
        <stop busStop="29027118" duration="30"/>
    </trip>
    <trip id="7_bus_108:0" type="pt_bus" depart="52.0" departLane="best" from="-386500268#0" to="-386500264#2">
        <stop busStop="-3566577210" duration="30"/>
        <stop busStop="-3872841444" duration="30"/>
    </trip>
    <trip id="8_trolleybus_101:0" type="pt_trolleybus" depart="55.0" departLane="best" from="384338154#2" to="5783284#3">
        <stop busStop="3876394651" duration="30"/>
    </trip>
    <trip id="9_bus_131:0" type="pt_bus" depart="58.0" departLane="best" from="675777502" to="-231875720#0">
        <stop busStop="3224629436" duration="30"/>
        <stop busStop="-3872841443" duration="30"/>
    </trip>
    <trip id="10_bus_122:0" type="pt_bus" depart="60.0" departLane="best" from="-392441930" to="231875715#1">
        <stop busStop="-3566577209" duration="30"/>
        <stop busStop="-3872841444" duration="30"/>
    </trip>
    <trip id="11_light_rail_U8:0" type="pt_light_rail" depart="93.0" departLane="best" from="12815133" to="12815133">
        <stop busStop="270196725" duration="30"/>
        <stop busStop="270599198" duration="30"/>
        <stop busStop="113591455" duration="30"/>
    </trip>
    <trip id="12_light_rail_U8:1" type="pt_light_rail" depart="98.0" departLane="best" from="26946520" to="26946517#1">
        <stop busStop="295255872" duration="30"/>
        <stop busStop="295255894" duration="30"/>
        <stop busStop="295255933" duration="30"/>
    </trip>
    <trip id="13_bus_119:0" type="pt_bus" depart="102.0" departLane="best" from="268558823#1" to="255241186">
        <stop busStop="3566577206" duration="30"/>
        <stop busStop="3933810892" duration="30"/>
        <stop busStop="2711169196" duration="30"/>
    </trip>
    <trip id="14_bus_121:0" type="pt_bus" depart="119.0" departLane="best" from="27531049#0" to="27531049#6">
        <stop busStop="245017149" duration="30"/>
        <stop busStop="3883265541" duration="30"/>
    </trip>
    <trip id="15_bus_120:0" type="pt_bus" depart="125.0" departLane="best" from="384972991#1" to="255241186">
        <stop busStop="2739052081" duration="30"/>
        <stop busStop="3933810892" duration="30"/>
        <stop busStop="2711169196" duration="30"/>
    </trip>
    <trip id="16_trolleybus_118:0" type="pt_trolleybus" depart="126.0" departLane="best" from="-926867318" to="-345736598">
        <stop busStop="3224629436" duration="30"/>
        <stop busStop="3933810892" duration="30"/>
        <stop busStop="2711169196" duration="30"/>
    </trip>
    <trip id="17_trolleybus_101:1" type="pt_trolleybus" depart="131.0" departLane="best" from="-5783284#3" to="384338154#2">
        <stop busStop="3876394653" duration="30"/>
    </trip>
    <trip id="18_bus_122:1" type="pt_bus" depart="132.0" departLane="best" from="-231875715#2" to="-392441930">
        <stop busStop="-6262815029" duration="30"/>
    </trip>
    <trip id="19_train_S1:1" type="pt_train" depart="133.0" departLane="best" from="123444522#0" to="23163786#4">
        <stop busStop="3068304222" duration="30"/>
        <stop busStop="3082162048" duration="30"/>
        <stop busStop="263337147" duration="30"/>
        <stop busStop="263337141" duration="30"/>
        <stop busStop="3222963807" duration="30"/>
        <stop busStop="3068257006" duration="30"/>
    </trip>
    <trip id="21_light_rail_U7:0" type="pt_light_rail" depart="137.0" departLane="best" from="12815133" to="12815133">
        <stop busStop="270196725" duration="30"/>
        <stop busStop="270599198" duration="30"/>
        <stop busStop="113591455" duration="30"/>
    </trip>
    <trip id="22_light_rail_U7:1" type="pt_light_rail" depart="139.0" departLane="best" from="26946520" to="26946517#1">
        <stop busStop="295255872" duration="30"/>
        <stop busStop="295255894" duration="30"/>
        <stop busStop="295255933" duration="30"/>
    </trip>
    <trip id="23_bus_102:0" type="pt_bus" depart="158.0" departLane="best" from="25576460#0" to="899604572#2">
        <stop busStop="2869390122" duration="30"/>
    </trip>
    <trip id="24_bus_102:1" type="pt_bus" depart="160.0" departLane="best" from="25576460#0" to="899604572#2">
        <stop busStop="2869390122" duration="30"/>
    </trip>
    <trip id="25_bus_102:2" type="pt_bus" depart="160.0" departLane="best" from="899604572#2" to="-25576460#0">
        <stop busStop="3872841448" duration="30"/>
    </trip>
    <trip id="26_bus_102:3" type="pt_bus" depart="165.0" departLane="best" from="899604572#2" to="-25576460#0">
        <stop busStop="3872841448" duration="30"/>
    </trip>
    <trip id="27_bus_102:4" type="pt_bus" depart="166.0" departLane="best" from="25576460#0" to="899604572#2">
        <stop busStop="2869390122" duration="30"/>
    </trip>
    <trip id="28_bus_102:5" type="pt_bus" depart="173.0" departLane="best" from="899604572#2" to="-25576460#0">
        <stop busStop="3872841448" duration="30"/>
    </trip>
    <trip id="29_bus_103:0" type="pt_bus" depart="188.0" departLane="best" from="25576460#0" to="-35359364#0">
        <stop busStop="2869390122" duration="30"/>
    </trip>
    <trip id="30_bus_103:1" type="pt_bus" depart="189.0" departLane="best" from="25576460#0" to="-35359364#0">
        <stop busStop="2869390122" duration="30"/>
    </trip>
    <trip id="31_bus_103:2" type="pt_bus" depart="201.0" departLane="best" from="25576460#0" to="-35359364#0">
        <stop busStop="2869390122" duration="30"/>
    </trip>
    <trip id="32_bus_103:3" type="pt_bus" depart="204.0" departLane="best" from="1088879786#0" to="-25576460#0">
        <stop busStop="1786518020" duration="30"/>
    </trip>
    <trip id="33_bus_103:4" type="pt_bus" depart="218.0" departLane="best" from="1088879786#0" to="-25576460#0">
        <stop busStop="1786518020" duration="30"/>
    </trip>
    <trip id="34_bus_103:5" type="pt_bus" depart="222.0" departLane="best" from="1088879786#0" to="-25576460#0">
        <stop busStop="1786518020" duration="30"/>
    </trip>
    <trip id="35_bus_104:0" type="pt_bus" depart="227.0" departLane="best" from="386500268#1" to="-27531049#1">
        <stop busStop="3566577208" duration="30"/>
        <stop busStop="-6515317595" duration="30"/>
    </trip>
    <trip id="36_bus_104:1" type="pt_bus" depart="227.0" departLane="best" from="386500268#1" to="-27531049#1">
        <stop busStop="3566577208" duration="30"/>
        <stop busStop="-6515317595" duration="30"/>
    </trip>
    <trip id="37_bus_104:2" type="pt_bus" depart="237.0" departLane="best" from="27531049#0" to="386500268#1">
    </trip>
    <trip id="38_bus_104:3" type="pt_bus" depart="253.0" departLane="best" from="27531049#0" to="386500268#1">
        <stop busStop="3883265532" duration="30"/>
    </trip>
    <trip id="39_bus_105:0" type="pt_bus" depart="275.0" departLane="best" from="675674221" to="-392441930">
        <stop busStop="6327610134" duration="30"/>
    </trip>
    <trip id="40_bus_105:1" type="pt_bus" depart="303.0" departLane="best" from="-392441930" to="675674221">
        <stop busStop="-3566577209" duration="30"/>
        <stop busStop="-3872841444" duration="30"/>
    </trip>
    <trip id="41_bus_106:1" type="pt_bus" depart="321.0" departLane="best" from="-57852607#2" to="384972991#1">
        <stop busStop="3876398764" duration="30"/>
        <stop busStop="3876394650" duration="30"/>
    </trip>
    <trip id="42_bus_108:1" type="pt_bus" depart="326.0" departLane="best" from="386500264#0" to="-386500268#0">
        <stop busStop="309471406" duration="30"/>
    </trip>
    <trip id="43_bus_109:0" type="pt_bus" depart="331.0" departLane="best" from="-386500268#0" to="558323894">
        <stop busStop="-6501810816" duration="30"/>
        <stop busStop="-2648044989" duration="30"/>
    </trip>
    <trip id="44_bus_109:1" type="pt_bus" depart="334.0" departLane="best" from="-558323894" to="-386500268#0">
        <stop busStop="-3904477592" duration="30"/>
    </trip>
    <trip id="45_bus_110:0" type="pt_bus" depart="346.0" departLane="best" from="-392441930" to="13622251#2">
        <stop busStop="-3566577209" duration="30"/>
        <stop busStop="-3872841444" duration="30"/>
    </trip>
    <trip id="46_bus_110:1" type="pt_bus" depart="353.0" departLane="best" from="-13622251#2" to="156260258">
        <stop busStop="-109597420" duration="30"/>
    </trip>
    <trip id="47_bus_111:0" type="pt_bus" depart="362.0" departLane="best" from="-386500268#0" to="23471056#4">
        <stop busStop="-3566577210" duration="30"/>
        <stop busStop="-6515317538" duration="30"/>
    </trip>
    <trip id="48_bus_111:1" type="pt_bus" depart="365.0" departLane="best" from="-387155257#0" to="-392441930">
        <stop busStop="-3904767704" duration="30"/>
    </trip>
    <trip id="49_bus_112:0" type="pt_bus" depart="371.0" departLane="best" from="268558823#1" to="274543260#0">
        <stop busStop="3566577206" duration="30"/>
        <stop busStop="-6515317538" duration="30"/>
    </trip>
    <trip id="50_bus_112:1" type="pt_bus" depart="381.0" departLane="best" from="268558823#1" to="-25812052">
        <stop busStop="3566577206" duration="30"/>
        <stop busStop="-6515317538" duration="30"/>
    </trip>
    <trip id="51_bus_112:2" type="pt_bus" depart="383.0" departLane="best" from="-274543260#3" to="268558823#1">
        <stop busStop="-3898445264" duration="30"/>
    </trip>
    <trip id="52_bus_112:3" type="pt_bus" depart="383.0" departLane="best" from="25812052" to="268558823#1">
        <stop busStop="2239070180" duration="30"/>
    </trip>
    <trip id="53_bus_113:0" type="pt_bus" depart="388.0" departLane="best" from="675777502" to="255241186">
        <stop busStop="3224629436" duration="30"/>
        <stop busStop="-6515317538" duration="30"/>
    </trip>
    <trip id="54_bus_113:1" type="pt_bus" depart="389.0" departLane="best" from="675777502" to="220797339">
        <stop busStop="3224629436" duration="30"/>
        <stop busStop="-6515317538" duration="30"/>
    </trip>
    <trip id="55_bus_113:2" type="pt_bus" depart="393.0" departLane="best" from="17082128#0" to="316354392">
        <stop busStop="247224583" duration="30"/>
    </trip>
    <trip id="56_bus_113:3" type="pt_bus" depart="406.0" departLane="best" from="-220797339" to="316354392">
        <stop busStop="3933810878" duration="30"/>
    </trip>
    <trip id="57_bus_114:3" type="pt_bus" depart="410.0" departLane="best" from="384972991#1" to="57852607#2">
        <stop busStop="2739052081" duration="30"/>
        <stop busStop="-6515317595" duration="30"/>
    </trip>
    <trip id="58_bus_114:4" type="pt_bus" depart="418.0" departLane="best" from="-57852607#2" to="384972991#1">
        <stop busStop="3876398764" duration="30"/>
        <stop busStop="3876394650" duration="30"/>
    </trip>
    <trip id="59_bus_114:5" type="pt_bus" depart="422.0" departLane="best" from="-57852607#2" to="384972991#1">
        <stop busStop="3876398764" duration="30"/>
        <stop busStop="3876394650" duration="30"/>
    </trip>
    <trip id="60_bus_115:0" type="pt_bus" depart="437.0" departLane="best" from="-383983728" to="4590682#2">
        <stop busStop="-3872480830" duration="30"/>
    </trip>
    <trip id="61_bus_115:1" type="pt_bus" depart="437.0" departLane="best" from="-4590682#2" to="156260258">
        <stop busStop="-2869007744" duration="30"/>
    </trip>
    <trip id="62_bus_119:1" type="pt_bus" depart="441.0" departLane="best" from="-255241186" to="268558823#1">
        <stop busStop="2426004802" duration="30"/>
        <stop busStop="-89023451" duration="30"/>
    </trip>
    <trip id="63_bus_120:1" type="pt_bus" depart="465.0" departLane="best" from="-255241186" to="384972991#1">
        <stop busStop="2426004802" duration="30"/>
        <stop busStop="-89023451" duration="30"/>
    </trip>
    <trip id="64_bus_121:1" type="pt_bus" depart="483.0" departLane="best" from="27531049#0" to="392589607#3">
        <stop busStop="3883265532" duration="30"/>
    </trip>
    <trip id="65_bus_131:1" type="pt_bus" depart="484.0" departLane="best" from="231875720#0" to="316354392">
        <stop busStop="-3968318269" duration="30"/>
    </trip>
    <trip id="66_bus_132:0" type="pt_bus" depart="485.0" departLane="best" from="-394114218#3" to="558323894">
        <stop busStop="-280307039" duration="30"/>
    </trip>
    <trip id="67_bus_132:1" type="pt_bus" depart="497.0" departLane="best" from="-558323894" to="-23059671#0">
        <stop busStop="-3904477592" duration="30"/>
    </trip>
    <trip id="68_bus_132:2" type="pt_bus" depart="505.0" departLane="best" from="-13622251#2" to="-23059671#0">
        <stop busStop="-109597420" duration="30"/>
    </trip>
    <trip id="69_bus_138:1" type="pt_bus" depart="508.0" departLane="best" from="-220797339" to="-181647035">
        <stop busStop="-2869007744" duration="30"/>
    </trip>
    <trip id="70_bus_140:0" type="pt_bus" depart="517.0" departLane="best" from="268558821#1" to="4590682#2">
        <stop busStop="3566577205" duration="30"/>
        <stop busStop="-3872841443" duration="30"/>
    </trip>
    <trip id="71_bus_140:1" type="pt_bus" depart="525.0" departLane="best" from="-4590682#2" to="268558821#1">
        <stop busStop="434308192" duration="30"/>
    </trip>
    <trip id="72_trolleybus_118:1" type="pt_trolleybus" depart="535.0" departLane="best" from="-926867318" to="-345736598">
        <stop busStop="3224629436" duration="30"/>
        <stop busStop="3933810892" duration="30"/>
        <stop busStop="2711169196" duration="30"/>
    </trip>
    <trip id="73_bus_X20:0" type="pt_bus" depart="548.0" departLane="best" from="280092625#0" to="268558821#1">
        <stop busStop="1967351665" duration="30"/>
        <stop busStop="3566577205" duration="30"/>
    </trip>
    <trip id="74_bus_X20:1" type="pt_bus" depart="561.0" departLane="best" from="268558821#1" to="-280092625#0">
        <stop busStop="3566577205" duration="30"/>
    </trip>
    <trip id="75_bus_130:0" type="pt_bus" depart="565.0" departLane="best" from="231875720#0" to="316354392">
        <stop busStop="-3968318269" duration="30"/>
    </trip>
    <trip id="76_bus_130:1" type="pt_bus" depart="574.0" departLane="best" from="675777502" to="-231875720#0">
        <stop busStop="3224629436" duration="30"/>
        <stop busStop="-3872841443" duration="30"/>
    </trip>
    <trip id="77_bus_N22:0" type="pt_bus" depart="583.0" departLane="best" from="384972991#1" to="-23032776#0">
        <stop busStop="2739052081" duration="30"/>
        <stop busStop="-3872841443" duration="30"/>
    </trip>
    <trip id="78_bus_N19:0" type="pt_bus" depart="593.0" departLane="best" from="-926867318" to="686955221">
        <stop busStop="3566577206" duration="30"/>
        <stop busStop="3933810892" duration="30"/>
        <stop busStop="2711169196" duration="30"/>
    </trip>
</routes>
